data_job_03224
_audit_creation_date              2018-12-19
_audit_creation_method            'Materials Studio'
_symmetry_space_group_name_H-M    'P1'
_symmetry_Int_Tables_number       1
_symmetry_cell_setting            triclinic
loop_
_symmetry_equiv_pos_as_xyz
  x,y,z
_cell_length_a                    19.2610
_cell_length_b                    10.1625
_cell_length_c                    15.4503
_cell_angle_alpha                 90.0000
_cell_angle_beta                  104.6790
_cell_angle_gamma                 90.0000
loop_
_atom_site_label
_atom_site_type_symbol
_atom_site_fract_x
_atom_site_fract_y
_atom_site_fract_z
_atom_site_U_iso_or_equiv
_atom_site_adp_type
_atom_site_occupancy
C1     C     0.81274   0.41495   0.97476   0.00000  Uiso   1.00
C2     C     0.87885   0.32861   0.00827   0.00000  Uiso   1.00
C3     C     0.93042   0.30169   0.96222   0.00000  Uiso   1.00
C4     C     0.98683   0.22042   0.00434   0.00000  Uiso   1.00
C5     C     0.08877   0.09428   0.04340   0.00000  Uiso   1.00
C6     C     0.74839   0.32920   0.97766   0.00000  Uiso   1.00
C7     C     0.69027   0.30278   0.90587   0.00000  Uiso   1.00
C8     C     0.63686   0.22202   0.92222   0.00000  Uiso   1.00
C9     C     0.53623   0.09687   0.91378   0.00000  Uiso   1.00
C10    C     0.81677   0.52094   0.04573   0.00000  Uiso   1.00
C11    C     0.81611   0.65574   0.03117   0.00000  Uiso   1.00
C12    C     0.82024   0.73641   0.10484   0.00000  Uiso   1.00
C13    C     0.82578   0.90896   0.20208   0.00000  Uiso   1.00
C14    C     0.82121   0.31851   0.13145   0.00000  Uiso   1.00
C15    C     0.88345   0.27623   0.09338   0.00000  Uiso   1.00
C16    C     0.93980   0.19499   0.13558   0.00000  Uiso   1.00
C17    C     0.99145   0.16795   0.08960   0.00000  Uiso   1.00
C18    C     0.75299   0.27682   0.06276   0.00000  Uiso   1.00
C19    C     0.69965   0.19608   0.07923   0.00000  Uiso   1.00
C20    C     0.64147   0.16955   0.00748   0.00000  Uiso   1.00
C21    C     0.82137   0.46856   0.13084   0.00000  Uiso   1.00
C22    C     0.82549   0.54904   0.20453   0.00000  Uiso   1.00
C23    C     0.82485   0.68394   0.19010   0.00000  Uiso   1.00
H24    H     0.80915   0.45573   0.90850   0.00000  Uiso   1.00
H25    H     0.92684   0.34224   0.89635   0.00000  Uiso   1.00
H26    H     0.68672   0.34335   0.84002   0.00000  Uiso   1.00
H27    H     0.81255   0.69624   0.96530   0.00000  Uiso   1.00
H28    H     0.05934   0.19327   0.92041   0.00000  Uiso   1.00
H29    H     0.55303   0.19564   0.80163   0.00000  Uiso   1.00
H30    H     0.81835   0.93980   0.06581   0.00000  Uiso   1.00
H31    H     0.82479   0.27773   0.19771   0.00000  Uiso   1.00
H32    H     0.94335   0.15446   0.20144   0.00000  Uiso   1.00
H33    H     0.70323   0.15557   0.14510   0.00000  Uiso   1.00
H34    H     0.82905   0.50847   0.27038   0.00000  Uiso   1.00
H35    H     0.07273   0.04086   0.16802   0.00000  Uiso   1.00
H36    H     0.56642   0.04324   0.04924   0.00000  Uiso   1.00
H37    H     0.83175   0.78739   0.31343   0.00000  Uiso   1.00
O38    O     0.14373   0.03916   0.04144   0.00000  Uiso   1.00
O39    O     0.47946   0.04229   0.88560   0.00000  Uiso   1.00
O40    O     0.82757   0.01860   0.23221   0.00000  Uiso   1.00
N41    N     0.04623   0.17434   0.97818   0.00000  Uiso   1.00
N42    N     0.57286   0.17654   0.86712   0.00000  Uiso   1.00
N43    N     0.82090   0.87226   0.11411   0.00000  Uiso   1.00
N44    N     0.05344   0.09233   0.11142   0.00000  Uiso   1.00
N45    N     0.58007   0.09453   0.00036   0.00000  Uiso   1.00
N46    N     0.82811   0.79025   0.24735   0.00000  Uiso   1.00
C47    C     0.18726   0.41495   0.52524   0.00000  Uiso   1.00
C48    C     0.12115   0.32861   0.49173   0.00000  Uiso   1.00
C49    C     0.06958   0.30169   0.53778   0.00000  Uiso   1.00
C50    C     0.01317   0.22042   0.49566   0.00000  Uiso   1.00
C51    C     0.91123   0.09428   0.45660   0.00000  Uiso   1.00
C52    C     0.25161   0.32920   0.52234   0.00000  Uiso   1.00
C53    C     0.30973   0.30278   0.59413   0.00000  Uiso   1.00
C54    C     0.36314   0.22202   0.57778   0.00000  Uiso   1.00
C55    C     0.46377   0.09687   0.58622   0.00000  Uiso   1.00
C56    C     0.18323   0.52094   0.45427   0.00000  Uiso   1.00
C57    C     0.18389   0.65574   0.46883   0.00000  Uiso   1.00
C58    C     0.17976   0.73641   0.39516   0.00000  Uiso   1.00
C59    C     0.17422   0.90896   0.29792   0.00000  Uiso   1.00
C60    C     0.17879   0.31851   0.36855   0.00000  Uiso   1.00
C61    C     0.11655   0.27623   0.40662   0.00000  Uiso   1.00
C62    C     0.06020   0.19499   0.36442   0.00000  Uiso   1.00
C63    C     0.00855   0.16795   0.41040   0.00000  Uiso   1.00
C64    C     0.24701   0.27682   0.43724   0.00000  Uiso   1.00
C65    C     0.30035   0.19608   0.42077   0.00000  Uiso   1.00
C66    C     0.35853   0.16955   0.49252   0.00000  Uiso   1.00
C67    C     0.17863   0.46856   0.36916   0.00000  Uiso   1.00
C68    C     0.17451   0.54904   0.29547   0.00000  Uiso   1.00
C69    C     0.17515   0.68394   0.30990   0.00000  Uiso   1.00
H70    H     0.19085   0.45573   0.59150   0.00000  Uiso   1.00
H71    H     0.07316   0.34224   0.60365   0.00000  Uiso   1.00
H72    H     0.31328   0.34335   0.65998   0.00000  Uiso   1.00
H73    H     0.18745   0.69624   0.53470   0.00000  Uiso   1.00
H74    H     0.94066   0.19327   0.57959   0.00000  Uiso   1.00
H75    H     0.44697   0.19564   0.69837   0.00000  Uiso   1.00
H76    H     0.18165   0.93980   0.43419   0.00000  Uiso   1.00
H77    H     0.17521   0.27773   0.30229   0.00000  Uiso   1.00
H78    H     0.05665   0.15446   0.29856   0.00000  Uiso   1.00
H79    H     0.29677   0.15557   0.35490   0.00000  Uiso   1.00
H80    H     0.17095   0.50847   0.22962   0.00000  Uiso   1.00
H81    H     0.92727   0.04086   0.33198   0.00000  Uiso   1.00
H82    H     0.43358   0.04324   0.45076   0.00000  Uiso   1.00
H83    H     0.16825   0.78739   0.18657   0.00000  Uiso   1.00
O84    O     0.85627   0.03916   0.45856   0.00000  Uiso   1.00
O85    O     0.52054   0.04229   0.61440   0.00000  Uiso   1.00
O86    O     0.17243   0.01860   0.26779   0.00000  Uiso   1.00
N87    N     0.95377   0.17434   0.52182   0.00000  Uiso   1.00
N88    N     0.42714   0.17654   0.63288   0.00000  Uiso   1.00
N89    N     0.17910   0.87226   0.38589   0.00000  Uiso   1.00
N90    N     0.94656   0.09233   0.38858   0.00000  Uiso   1.00
N91    N     0.41993   0.09453   0.49964   0.00000  Uiso   1.00
N92    N     0.17189   0.79025   0.25265   0.00000  Uiso   1.00
C93    C     0.18726   0.58505   0.02524   0.00000  Uiso   1.00
C94    C     0.12115   0.67139   0.99173   0.00000  Uiso   1.00
C95    C     0.06958   0.69831   0.03778   0.00000  Uiso   1.00
C96    C     0.01317   0.77958   0.99566   0.00000  Uiso   1.00
C97    C     0.91123   0.90572   0.95660   0.00000  Uiso   1.00
C98    C     0.25161   0.67080   0.02234   0.00000  Uiso   1.00
C99    C     0.30973   0.69722   0.09413   0.00000  Uiso   1.00
C100   C     0.36314   0.77798   0.07778   0.00000  Uiso   1.00
C101   C     0.46377   0.90313   0.08622   0.00000  Uiso   1.00
C102   C     0.18323   0.47906   0.95427   0.00000  Uiso   1.00
C103   C     0.18389   0.34426   0.96883   0.00000  Uiso   1.00
C104   C     0.17976   0.26359   0.89516   0.00000  Uiso   1.00
C105   C     0.17422   0.09104   0.79792   0.00000  Uiso   1.00
C106   C     0.17879   0.68149   0.86855   0.00000  Uiso   1.00
C107   C     0.11655   0.72377   0.90662   0.00000  Uiso   1.00
C108   C     0.06020   0.80501   0.86442   0.00000  Uiso   1.00
C109   C     0.00855   0.83205   0.91040   0.00000  Uiso   1.00
C110   C     0.24701   0.72318   0.93724   0.00000  Uiso   1.00
C111   C     0.30035   0.80392   0.92077   0.00000  Uiso   1.00
C112   C     0.35853   0.83045   0.99252   0.00000  Uiso   1.00
C113   C     0.17863   0.53144   0.86916   0.00000  Uiso   1.00
C114   C     0.17451   0.45096   0.79547   0.00000  Uiso   1.00
C115   C     0.17515   0.31606   0.80990   0.00000  Uiso   1.00
H116   H     0.19085   0.54427   0.09150   0.00000  Uiso   1.00
H117   H     0.07316   0.65776   0.10365   0.00000  Uiso   1.00
H118   H     0.31328   0.65665   0.15998   0.00000  Uiso   1.00
H119   H     0.18745   0.30376   0.03470   0.00000  Uiso   1.00
H120   H     0.94066   0.80673   0.07959   0.00000  Uiso   1.00
H121   H     0.44697   0.80436   0.19837   0.00000  Uiso   1.00
H122   H     0.18165   0.06020   0.93419   0.00000  Uiso   1.00
H123   H     0.17521   0.72227   0.80229   0.00000  Uiso   1.00
H124   H     0.05665   0.84554   0.79856   0.00000  Uiso   1.00
H125   H     0.29677   0.84443   0.85490   0.00000  Uiso   1.00
H126   H     0.17095   0.49153   0.72962   0.00000  Uiso   1.00
H127   H     0.92727   0.95914   0.83198   0.00000  Uiso   1.00
H128   H     0.43358   0.95676   0.95076   0.00000  Uiso   1.00
H129   H     0.16825   0.21261   0.68657   0.00000  Uiso   1.00
O130   O     0.85627   0.96084   0.95856   0.00000  Uiso   1.00
O131   O     0.52054   0.95771   0.11440   0.00000  Uiso   1.00
O132   O     0.17243   0.98140   0.76779   0.00000  Uiso   1.00
N133   N     0.95377   0.82566   0.02182   0.00000  Uiso   1.00
N134   N     0.42714   0.82346   0.13288   0.00000  Uiso   1.00
N135   N     0.17910   0.12774   0.88589   0.00000  Uiso   1.00
N136   N     0.94656   0.90767   0.88858   0.00000  Uiso   1.00
N137   N     0.41993   0.90547   0.99964   0.00000  Uiso   1.00
N138   N     0.17189   0.20975   0.75265   0.00000  Uiso   1.00
C139   C     0.81274   0.58505   0.47476   0.00000  Uiso   1.00
C140   C     0.87885   0.67139   0.50827   0.00000  Uiso   1.00
C141   C     0.93042   0.69831   0.46222   0.00000  Uiso   1.00
C142   C     0.98683   0.77958   0.50434   0.00000  Uiso   1.00
C143   C     0.08877   0.90572   0.54340   0.00000  Uiso   1.00
C144   C     0.74839   0.67080   0.47766   0.00000  Uiso   1.00
C145   C     0.69027   0.69722   0.40587   0.00000  Uiso   1.00
C146   C     0.63686   0.77798   0.42222   0.00000  Uiso   1.00
C147   C     0.53623   0.90313   0.41378   0.00000  Uiso   1.00
C148   C     0.81677   0.47906   0.54573   0.00000  Uiso   1.00
C149   C     0.81611   0.34426   0.53117   0.00000  Uiso   1.00
C150   C     0.82024   0.26359   0.60484   0.00000  Uiso   1.00
C151   C     0.82578   0.09104   0.70208   0.00000  Uiso   1.00
C152   C     0.82121   0.68149   0.63145   0.00000  Uiso   1.00
C153   C     0.88345   0.72377   0.59338   0.00000  Uiso   1.00
C154   C     0.93980   0.80501   0.63558   0.00000  Uiso   1.00
C155   C     0.99145   0.83205   0.58960   0.00000  Uiso   1.00
C156   C     0.75299   0.72318   0.56276   0.00000  Uiso   1.00
C157   C     0.69965   0.80392   0.57923   0.00000  Uiso   1.00
C158   C     0.64147   0.83045   0.50748   0.00000  Uiso   1.00
C159   C     0.82137   0.53144   0.63084   0.00000  Uiso   1.00
C160   C     0.82549   0.45096   0.70453   0.00000  Uiso   1.00
C161   C     0.82485   0.31606   0.69010   0.00000  Uiso   1.00
H162   H     0.80915   0.54427   0.40850   0.00000  Uiso   1.00
H163   H     0.92684   0.65776   0.39635   0.00000  Uiso   1.00
H164   H     0.68672   0.65665   0.34002   0.00000  Uiso   1.00
H165   H     0.81255   0.30376   0.46530   0.00000  Uiso   1.00
H166   H     0.05934   0.80673   0.42041   0.00000  Uiso   1.00
H167   H     0.55303   0.80436   0.30163   0.00000  Uiso   1.00
H168   H     0.81835   0.06020   0.56581   0.00000  Uiso   1.00
H169   H     0.82479   0.72227   0.69771   0.00000  Uiso   1.00
H170   H     0.94335   0.84554   0.70144   0.00000  Uiso   1.00
H171   H     0.70323   0.84443   0.64510   0.00000  Uiso   1.00
H172   H     0.82905   0.49153   0.77038   0.00000  Uiso   1.00
H173   H     0.07273   0.95914   0.66802   0.00000  Uiso   1.00
H174   H     0.56642   0.95676   0.54924   0.00000  Uiso   1.00
H175   H     0.83175   0.21261   0.81343   0.00000  Uiso   1.00
O176   O     0.14373   0.96084   0.54144   0.00000  Uiso   1.00
O177   O     0.47946   0.95771   0.38560   0.00000  Uiso   1.00
O178   O     0.82757   0.98140   0.73221   0.00000  Uiso   1.00
N179   N     0.04623   0.82566   0.47818   0.00000  Uiso   1.00
N180   N     0.57286   0.82346   0.36712   0.00000  Uiso   1.00
N181   N     0.82090   0.12774   0.61411   0.00000  Uiso   1.00
N182   N     0.05344   0.90767   0.61142   0.00000  Uiso   1.00
N183   N     0.58007   0.90547   0.50036   0.00000  Uiso   1.00
N184   N     0.82811   0.20975   0.74735   0.00000  Uiso   1.00
