data_job_02228
_audit_creation_date              2018-12-19
_audit_creation_method            'Materials Studio'
_symmetry_space_group_name_H-M    'P1'
_symmetry_Int_Tables_number       1
_symmetry_cell_setting            triclinic
loop_
_symmetry_equiv_pos_as_xyz
  x,y,z
_cell_length_a                    12.1191
_cell_length_b                    23.9218
_cell_length_c                    10.4725
_cell_angle_alpha                 90.0000
_cell_angle_beta                  72.8050
_cell_angle_gamma                 90.0000
loop_
_atom_site_label
_atom_site_type_symbol
_atom_site_fract_x
_atom_site_fract_y
_atom_site_fract_z
_atom_site_U_iso_or_equiv
_atom_site_adp_type
_atom_site_occupancy
C1     C     0.24349   0.91929   0.23572   0.00000  Uiso   1.00
C2     C     0.26342   0.96407   0.33016   0.00000  Uiso   1.00
C3     C     0.22869   0.01948   0.33382   0.00000  Uiso   1.00
C4     C     0.25514   0.05386   0.42751   0.00000  Uiso   1.00
C5     C     0.27715   0.12650   0.56090   0.00000  Uiso   1.00
C6     C     0.36252   0.89612   0.16201   0.00000  Uiso   1.00
C7     C     0.41109   0.89438   0.02430   0.00000  Uiso   1.00
C8     C     0.52095   0.87154   0.97645   0.00000  Uiso   1.00
C9     C     0.69677   0.83864   0.84878   0.00000  Uiso   1.00
C10    C     0.17907   0.87200   0.32453   0.00000  Uiso   1.00
C11    C     0.07341   0.84997   0.32345   0.00000  Uiso   1.00
C12    C     0.02883   0.80681   0.41240   0.00000  Uiso   1.00
C13    C     0.91982   0.73646   0.53707   0.00000  Uiso   1.00
C14    C     0.35223   0.88181   0.39558   0.00000  Uiso   1.00
C15    C     0.32249   0.94371   0.41699   0.00000  Uiso   1.00
C16    C     0.34899   0.97801   0.51070   0.00000  Uiso   1.00
C17    C     0.31430   0.03346   0.51451   0.00000  Uiso   1.00
C18    C     0.42157   0.87576   0.24884   0.00000  Uiso   1.00
C19    C     0.53139   0.85292   0.20117   0.00000  Uiso   1.00
C20    C     0.58012   0.85115   0.06343   0.00000  Uiso   1.00
C21    C     0.23813   0.85164   0.41137   0.00000  Uiso   1.00
C22    C     0.19371   0.80850   0.50033   0.00000  Uiso   1.00
C23    C     0.08800   0.78642   0.49939   0.00000  Uiso   1.00
H24    H     0.19752   0.93513   0.16811   0.00000  Uiso   1.00
H25    H     0.18300   0.03522   0.26660   0.00000  Uiso   1.00
H26    H     0.36536   0.91013   0.95713   0.00000  Uiso   1.00
H27    H     0.02773   0.86573   0.25624   0.00000  Uiso   1.00
H28    H     0.19298   0.13721   0.41406   0.00000  Uiso   1.00
H29    H     0.57748   0.87344   0.76152   0.00000  Uiso   1.00
H30    H     0.86553   0.77980   0.39224   0.00000  Uiso   1.00
H31    H     0.39821   0.86596   0.46319   0.00000  Uiso   1.00
H32    H     0.39469   0.96225   0.57788   0.00000  Uiso   1.00
H33    H     0.57706   0.83716   0.26840   0.00000  Uiso   1.00
H34    H     0.23944   0.79276   0.56751   0.00000  Uiso   1.00
H35    H     0.36480   0.07798   0.66670   0.00000  Uiso   1.00
H36    H     0.74931   0.81421   0.01415   0.00000  Uiso   1.00
H37    H     0.03736   0.72058   0.64488   0.00000  Uiso   1.00
O38    O     0.27299   0.17219   0.61047   0.00000  Uiso   1.00
O39    O     0.77743   0.82613   0.75437   0.00000  Uiso   1.00
O40    O     0.84338   0.70329   0.58186   0.00000  Uiso   1.00
N41    N     0.23388   0.11005   0.45780   0.00000  Uiso   1.00
N42    N     0.59337   0.86345   0.84771   0.00000  Uiso   1.00
N43    N     0.92778   0.77590   0.43736   0.00000  Uiso   1.00
N44    N     0.32633   0.07818   0.59374   0.00000  Uiso   1.00
N45    N     0.68583   0.83158   0.98365   0.00000  Uiso   1.00
N46    N     0.02023   0.74403   0.57330   0.00000  Uiso   1.00
C47    C     0.75651   0.41929   0.26428   0.00000  Uiso   1.00
C48    C     0.73658   0.46407   0.16984   0.00000  Uiso   1.00
C49    C     0.77131   0.51948   0.16618   0.00000  Uiso   1.00
C50    C     0.74486   0.55386   0.07249   0.00000  Uiso   1.00
C51    C     0.72285   0.62650   0.93910   0.00000  Uiso   1.00
C52    C     0.63748   0.39612   0.33799   0.00000  Uiso   1.00
C53    C     0.58891   0.39438   0.47570   0.00000  Uiso   1.00
C54    C     0.47905   0.37154   0.52355   0.00000  Uiso   1.00
C55    C     0.30323   0.33864   0.65122   0.00000  Uiso   1.00
C56    C     0.82093   0.37200   0.17547   0.00000  Uiso   1.00
C57    C     0.92659   0.34997   0.17655   0.00000  Uiso   1.00
C58    C     0.97117   0.30681   0.08760   0.00000  Uiso   1.00
C59    C     0.08018   0.23646   0.96293   0.00000  Uiso   1.00
C60    C     0.64777   0.38181   0.10442   0.00000  Uiso   1.00
C61    C     0.67751   0.44371   0.08301   0.00000  Uiso   1.00
C62    C     0.65101   0.47801   0.98930   0.00000  Uiso   1.00
C63    C     0.68570   0.53346   0.98549   0.00000  Uiso   1.00
C64    C     0.57843   0.37576   0.25116   0.00000  Uiso   1.00
C65    C     0.46861   0.35292   0.29883   0.00000  Uiso   1.00
C66    C     0.41988   0.35115   0.43657   0.00000  Uiso   1.00
C67    C     0.76187   0.35164   0.08863   0.00000  Uiso   1.00
C68    C     0.80629   0.30850   0.99967   0.00000  Uiso   1.00
C69    C     0.91200   0.28642   0.00061   0.00000  Uiso   1.00
H70    H     0.80248   0.43513   0.33189   0.00000  Uiso   1.00
H71    H     0.81700   0.53522   0.23340   0.00000  Uiso   1.00
H72    H     0.63464   0.41013   0.54287   0.00000  Uiso   1.00
H73    H     0.97227   0.36573   0.24376   0.00000  Uiso   1.00
H74    H     0.80702   0.63721   0.08594   0.00000  Uiso   1.00
H75    H     0.42252   0.37344   0.73848   0.00000  Uiso   1.00
H76    H     0.13447   0.27980   0.10776   0.00000  Uiso   1.00
H77    H     0.60179   0.36596   0.03681   0.00000  Uiso   1.00
H78    H     0.60531   0.46225   0.92212   0.00000  Uiso   1.00
H79    H     0.42294   0.33716   0.23160   0.00000  Uiso   1.00
H80    H     0.76056   0.29276   0.93249   0.00000  Uiso   1.00
H81    H     0.63520   0.57798   0.83330   0.00000  Uiso   1.00
H82    H     0.25069   0.31421   0.48585   0.00000  Uiso   1.00
H83    H     0.96264   0.22058   0.85512   0.00000  Uiso   1.00
O84    O     0.72701   0.67219   0.88953   0.00000  Uiso   1.00
O85    O     0.22257   0.32613   0.74563   0.00000  Uiso   1.00
O86    O     0.15662   0.20329   0.91814   0.00000  Uiso   1.00
N87    N     0.76612   0.61005   0.04220   0.00000  Uiso   1.00
N88    N     0.40663   0.36345   0.65229   0.00000  Uiso   1.00
N89    N     0.07222   0.27590   0.06264   0.00000  Uiso   1.00
N90    N     0.67367   0.57818   0.90626   0.00000  Uiso   1.00
N91    N     0.31417   0.33158   0.51635   0.00000  Uiso   1.00
N92    N     0.97977   0.24403   0.92670   0.00000  Uiso   1.00
C93    C     0.75651   0.08071   0.76428   0.00000  Uiso   1.00
C94    C     0.73658   0.03593   0.66984   0.00000  Uiso   1.00
C95    C     0.77131   0.98052   0.66618   0.00000  Uiso   1.00
C96    C     0.74486   0.94614   0.57249   0.00000  Uiso   1.00
C97    C     0.72285   0.87350   0.43910   0.00000  Uiso   1.00
C98    C     0.63748   0.10388   0.83799   0.00000  Uiso   1.00
C99    C     0.58891   0.10562   0.97570   0.00000  Uiso   1.00
C100   C     0.47905   0.12846   0.02355   0.00000  Uiso   1.00
C101   C     0.30323   0.16136   0.15122   0.00000  Uiso   1.00
C102   C     0.82093   0.12800   0.67547   0.00000  Uiso   1.00
C103   C     0.92659   0.15003   0.67655   0.00000  Uiso   1.00
C104   C     0.97117   0.19319   0.58760   0.00000  Uiso   1.00
C105   C     0.08018   0.26354   0.46293   0.00000  Uiso   1.00
C106   C     0.64777   0.11819   0.60442   0.00000  Uiso   1.00
C107   C     0.67751   0.05629   0.58301   0.00000  Uiso   1.00
C108   C     0.65101   0.02199   0.48930   0.00000  Uiso   1.00
C109   C     0.68570   0.96654   0.48549   0.00000  Uiso   1.00
C110   C     0.57843   0.12424   0.75116   0.00000  Uiso   1.00
C111   C     0.46861   0.14708   0.79883   0.00000  Uiso   1.00
C112   C     0.41988   0.14885   0.93657   0.00000  Uiso   1.00
C113   C     0.76187   0.14836   0.58863   0.00000  Uiso   1.00
C114   C     0.80629   0.19150   0.49967   0.00000  Uiso   1.00
C115   C     0.91200   0.21358   0.50061   0.00000  Uiso   1.00
H116   H     0.80248   0.06487   0.83189   0.00000  Uiso   1.00
H117   H     0.81700   0.96478   0.73340   0.00000  Uiso   1.00
H118   H     0.63464   0.08987   0.04287   0.00000  Uiso   1.00
H119   H     0.97227   0.13427   0.74376   0.00000  Uiso   1.00
H120   H     0.80702   0.86279   0.58594   0.00000  Uiso   1.00
H121   H     0.42252   0.12656   0.23848   0.00000  Uiso   1.00
H122   H     0.13447   0.22020   0.60776   0.00000  Uiso   1.00
H123   H     0.60179   0.13404   0.53681   0.00000  Uiso   1.00
H124   H     0.60531   0.03775   0.42212   0.00000  Uiso   1.00
H125   H     0.42294   0.16284   0.73160   0.00000  Uiso   1.00
H126   H     0.76056   0.20724   0.43249   0.00000  Uiso   1.00
H127   H     0.63520   0.92202   0.33330   0.00000  Uiso   1.00
H128   H     0.25069   0.18579   0.98585   0.00000  Uiso   1.00
H129   H     0.96264   0.27942   0.35512   0.00000  Uiso   1.00
O130   O     0.72701   0.82781   0.38953   0.00000  Uiso   1.00
O131   O     0.22257   0.17387   0.24563   0.00000  Uiso   1.00
O132   O     0.15662   0.29671   0.41814   0.00000  Uiso   1.00
N133   N     0.76612   0.88995   0.54220   0.00000  Uiso   1.00
N134   N     0.40663   0.13655   0.15229   0.00000  Uiso   1.00
N135   N     0.07222   0.22410   0.56264   0.00000  Uiso   1.00
N136   N     0.67367   0.92182   0.40626   0.00000  Uiso   1.00
N137   N     0.31417   0.16842   0.01635   0.00000  Uiso   1.00
N138   N     0.97977   0.25597   0.42670   0.00000  Uiso   1.00
C139   C     0.24349   0.58071   0.73572   0.00000  Uiso   1.00
C140   C     0.26342   0.53593   0.83016   0.00000  Uiso   1.00
C141   C     0.22869   0.48052   0.83382   0.00000  Uiso   1.00
C142   C     0.25514   0.44614   0.92751   0.00000  Uiso   1.00
C143   C     0.27715   0.37350   0.06090   0.00000  Uiso   1.00
C144   C     0.36252   0.60388   0.66201   0.00000  Uiso   1.00
C145   C     0.41109   0.60562   0.52430   0.00000  Uiso   1.00
C146   C     0.52095   0.62846   0.47645   0.00000  Uiso   1.00
C147   C     0.69677   0.66136   0.34878   0.00000  Uiso   1.00
C148   C     0.17907   0.62800   0.82453   0.00000  Uiso   1.00
C149   C     0.07341   0.65003   0.82345   0.00000  Uiso   1.00
C150   C     0.02883   0.69319   0.91240   0.00000  Uiso   1.00
C151   C     0.91982   0.76354   0.03707   0.00000  Uiso   1.00
C152   C     0.35223   0.61819   0.89558   0.00000  Uiso   1.00
C153   C     0.32249   0.55629   0.91699   0.00000  Uiso   1.00
C154   C     0.34899   0.52199   0.01070   0.00000  Uiso   1.00
C155   C     0.31430   0.46654   0.01451   0.00000  Uiso   1.00
C156   C     0.42157   0.62424   0.74884   0.00000  Uiso   1.00
C157   C     0.53139   0.64708   0.70117   0.00000  Uiso   1.00
C158   C     0.58012   0.64885   0.56343   0.00000  Uiso   1.00
C159   C     0.23813   0.64836   0.91137   0.00000  Uiso   1.00
C160   C     0.19371   0.69150   0.00033   0.00000  Uiso   1.00
C161   C     0.08800   0.71358   0.99939   0.00000  Uiso   1.00
H162   H     0.19752   0.56487   0.66811   0.00000  Uiso   1.00
H163   H     0.18300   0.46478   0.76660   0.00000  Uiso   1.00
H164   H     0.36536   0.58987   0.45713   0.00000  Uiso   1.00
H165   H     0.02773   0.63427   0.75624   0.00000  Uiso   1.00
H166   H     0.19298   0.36279   0.91406   0.00000  Uiso   1.00
H167   H     0.57748   0.62656   0.26152   0.00000  Uiso   1.00
H168   H     0.86553   0.72020   0.89224   0.00000  Uiso   1.00
H169   H     0.39821   0.63404   0.96319   0.00000  Uiso   1.00
H170   H     0.39469   0.53775   0.07788   0.00000  Uiso   1.00
H171   H     0.57706   0.66284   0.76840   0.00000  Uiso   1.00
H172   H     0.23944   0.70724   0.06751   0.00000  Uiso   1.00
H173   H     0.36480   0.42202   0.16670   0.00000  Uiso   1.00
H174   H     0.74931   0.68579   0.51415   0.00000  Uiso   1.00
H175   H     0.03736   0.77942   0.14488   0.00000  Uiso   1.00
O176   O     0.27299   0.32781   0.11047   0.00000  Uiso   1.00
O177   O     0.77743   0.67387   0.25437   0.00000  Uiso   1.00
O178   O     0.84338   0.79671   0.08186   0.00000  Uiso   1.00
N179   N     0.23388   0.38995   0.95780   0.00000  Uiso   1.00
N180   N     0.59337   0.63655   0.34771   0.00000  Uiso   1.00
N181   N     0.92778   0.72410   0.93736   0.00000  Uiso   1.00
N182   N     0.32633   0.42182   0.09374   0.00000  Uiso   1.00
N183   N     0.68583   0.66842   0.48365   0.00000  Uiso   1.00
N184   N     0.02023   0.75597   0.07330   0.00000  Uiso   1.00
