data_job_00048
_audit_creation_date              2018-12-19
_audit_creation_method            'Materials Studio'
_symmetry_space_group_name_H-M    'P1'
_symmetry_Int_Tables_number       1
_symmetry_cell_setting            triclinic
loop_
_symmetry_equiv_pos_as_xyz
  x,y,z
_cell_length_a                    22.1185
_cell_length_b                    12.8699
_cell_length_c                    23.4147
_cell_angle_alpha                 90.0000
_cell_angle_beta                  123.6100
_cell_angle_gamma                 90.0000
loop_
_atom_site_label
_atom_site_type_symbol
_atom_site_fract_x
_atom_site_fract_y
_atom_site_fract_z
_atom_site_U_iso_or_equiv
_atom_site_adp_type
_atom_site_occupancy
C1     C     0.26008   0.89835   0.25541   0.00000  Uiso   1.00
C2     C     0.25960   0.97046   0.20348   0.00000  Uiso   1.00
C3     C     0.31066   0.97126   0.18660   0.00000  Uiso   1.00
C4     C     0.30063   0.04320   0.13788   0.00000  Uiso   1.00
C5     C     0.30889   0.14476   0.06195   0.00000  Uiso   1.00
C6     C     0.25908   0.96878   0.30725   0.00000  Uiso   1.00
C7     C     0.30970   0.96815   0.37762   0.00000  Uiso   1.00
C8     C     0.29922   0.03866   0.41626   0.00000  Uiso   1.00
C9     C     0.30664   0.13756   0.50144   0.00000  Uiso   1.00
C10    C     0.18711   0.84241   0.21676   0.00000  Uiso   1.00
C11    C     0.17720   0.73551   0.21105   0.00000  Uiso   1.00
C12    C     0.10612   0.69963   0.17351   0.00000  Uiso   1.00
C13    C     0.00180   0.60231   0.11818   0.00000  Uiso   1.00
C14    C     0.15146   0.02470   0.19889   0.00000  Uiso   1.00
C15    C     0.20061   0.03909   0.17279   0.00000  Uiso   1.00
C16    C     0.19049   0.11104   0.12408   0.00000  Uiso   1.00
C17    C     0.24152   0.11194   0.10713   0.00000  Uiso   1.00
C18    C     0.20009   0.03741   0.27656   0.00000  Uiso   1.00
C19    C     0.18952   0.10793   0.31510   0.00000  Uiso   1.00
C20    C     0.24011   0.10741   0.38551   0.00000  Uiso   1.00
C21    C     0.12811   0.91103   0.18606   0.00000  Uiso   1.00
C22    C     0.05703   0.87530   0.14852   0.00000  Uiso   1.00
C23    C     0.04702   0.76838   0.14276   0.00000  Uiso   1.00
H24    H     0.30601   0.84493   0.27931   0.00000  Uiso   1.00
H25    H     0.35632   0.91814   0.21037   0.00000  Uiso   1.00
H26    H     0.35535   0.91503   0.40136   0.00000  Uiso   1.00
H27    H     0.22287   0.68243   0.23481   0.00000  Uiso   1.00
H28    H     0.38609   0.02960   0.12043   0.00000  Uiso   1.00
H29    H     0.38403   0.02301   0.52314   0.00000  Uiso   1.00
H30    H     0.10469   0.53253   0.17194   0.00000  Uiso   1.00
H31    H     0.10552   0.07813   0.17500   0.00000  Uiso   1.00
H32    H     0.14483   0.16414   0.10033   0.00000  Uiso   1.00
H33    H     0.14386   0.16103   0.29133   0.00000  Uiso   1.00
H34    H     0.01139   0.92843   0.12478   0.00000  Uiso   1.00
H35    H     0.21444   0.22927   0.03112   0.00000  Uiso   1.00
H36    H     0.21238   0.22267   0.43384   0.00000  Uiso   1.00
H37    H     0.93303   0.73220   0.08263   0.00000  Uiso   1.00
O38    O     0.32975   0.18183   0.02856   0.00000  Uiso   1.00
O39    O     0.32704   0.17316   0.55691   0.00000  Uiso   1.00
O40    O     0.96055   0.52967   0.09614   0.00000  Uiso   1.00
N41    N     0.34029   0.06478   0.10964   0.00000  Uiso   1.00
N42    N     0.33837   0.05862   0.48616   0.00000  Uiso   1.00
N43    N     0.07721   0.60007   0.15783   0.00000  Uiso   1.00
N44    N     0.24792   0.17222   0.06159   0.00000  Uiso   1.00
N45    N     0.24601   0.16606   0.43810   0.00000  Uiso   1.00
N46    N     0.98484   0.70750   0.10978   0.00000  Uiso   1.00
C47    C     0.76008   0.39835   0.25541   0.00000  Uiso   1.00
C48    C     0.75960   0.47046   0.20348   0.00000  Uiso   1.00
C49    C     0.81066   0.47126   0.18660   0.00000  Uiso   1.00
C50    C     0.80063   0.54320   0.13788   0.00000  Uiso   1.00
C51    C     0.80889   0.64476   0.06195   0.00000  Uiso   1.00
C52    C     0.75908   0.46878   0.30725   0.00000  Uiso   1.00
C53    C     0.80970   0.46815   0.37762   0.00000  Uiso   1.00
C54    C     0.79922   0.53866   0.41626   0.00000  Uiso   1.00
C55    C     0.80664   0.63756   0.50144   0.00000  Uiso   1.00
C56    C     0.68711   0.34241   0.21676   0.00000  Uiso   1.00
C57    C     0.67720   0.23551   0.21105   0.00000  Uiso   1.00
C58    C     0.60612   0.19963   0.17351   0.00000  Uiso   1.00
C59    C     0.50180   0.10231   0.11818   0.00000  Uiso   1.00
C60    C     0.65146   0.52470   0.19889   0.00000  Uiso   1.00
C61    C     0.70061   0.53909   0.17279   0.00000  Uiso   1.00
C62    C     0.69049   0.61104   0.12408   0.00000  Uiso   1.00
C63    C     0.74152   0.61194   0.10713   0.00000  Uiso   1.00
C64    C     0.70009   0.53741   0.27656   0.00000  Uiso   1.00
C65    C     0.68952   0.60793   0.31510   0.00000  Uiso   1.00
C66    C     0.74011   0.60741   0.38551   0.00000  Uiso   1.00
C67    C     0.62811   0.41103   0.18606   0.00000  Uiso   1.00
C68    C     0.55703   0.37530   0.14852   0.00000  Uiso   1.00
C69    C     0.54702   0.26838   0.14276   0.00000  Uiso   1.00
H70    H     0.80601   0.34493   0.27931   0.00000  Uiso   1.00
H71    H     0.85632   0.41814   0.21037   0.00000  Uiso   1.00
H72    H     0.85535   0.41503   0.40136   0.00000  Uiso   1.00
H73    H     0.72287   0.18243   0.23481   0.00000  Uiso   1.00
H74    H     0.88609   0.52960   0.12043   0.00000  Uiso   1.00
H75    H     0.88403   0.52301   0.52314   0.00000  Uiso   1.00
H76    H     0.60469   0.03253   0.17194   0.00000  Uiso   1.00
H77    H     0.60552   0.57813   0.17500   0.00000  Uiso   1.00
H78    H     0.64483   0.66414   0.10033   0.00000  Uiso   1.00
H79    H     0.64386   0.66103   0.29133   0.00000  Uiso   1.00
H80    H     0.51139   0.42843   0.12478   0.00000  Uiso   1.00
H81    H     0.71444   0.72927   0.03112   0.00000  Uiso   1.00
H82    H     0.71238   0.72267   0.43384   0.00000  Uiso   1.00
H83    H     0.43303   0.23220   0.08263   0.00000  Uiso   1.00
O84    O     0.82975   0.68183   0.02856   0.00000  Uiso   1.00
O85    O     0.82704   0.67316   0.55691   0.00000  Uiso   1.00
O86    O     0.46055   0.02967   0.09614   0.00000  Uiso   1.00
N87    N     0.84029   0.56478   0.10964   0.00000  Uiso   1.00
N88    N     0.83837   0.55862   0.48616   0.00000  Uiso   1.00
N89    N     0.57721   0.10007   0.15783   0.00000  Uiso   1.00
N90    N     0.74792   0.67222   0.06159   0.00000  Uiso   1.00
N91    N     0.74601   0.66606   0.43810   0.00000  Uiso   1.00
N92    N     0.48484   0.20750   0.10978   0.00000  Uiso   1.00
C93    C     0.73992   0.89835   0.24459   0.00000  Uiso   1.00
C94    C     0.74040   0.97046   0.29652   0.00000  Uiso   1.00
C95    C     0.68934   0.97126   0.31340   0.00000  Uiso   1.00
C96    C     0.69937   0.04320   0.36212   0.00000  Uiso   1.00
C97    C     0.69111   0.14476   0.43805   0.00000  Uiso   1.00
C98    C     0.74092   0.96878   0.19275   0.00000  Uiso   1.00
C99    C     0.69030   0.96815   0.12238   0.00000  Uiso   1.00
C100   C     0.70078   0.03866   0.08374   0.00000  Uiso   1.00
C101   C     0.69336   0.13756   0.99856   0.00000  Uiso   1.00
C102   C     0.81289   0.84241   0.28324   0.00000  Uiso   1.00
C103   C     0.82280   0.73551   0.28895   0.00000  Uiso   1.00
C104   C     0.89388   0.69963   0.32649   0.00000  Uiso   1.00
C105   C     0.99820   0.60231   0.38182   0.00000  Uiso   1.00
C106   C     0.84854   0.02470   0.30111   0.00000  Uiso   1.00
C107   C     0.79939   0.03909   0.32721   0.00000  Uiso   1.00
C108   C     0.80951   0.11104   0.37592   0.00000  Uiso   1.00
C109   C     0.75848   0.11194   0.39287   0.00000  Uiso   1.00
C110   C     0.79991   0.03741   0.22344   0.00000  Uiso   1.00
C111   C     0.81048   0.10793   0.18490   0.00000  Uiso   1.00
C112   C     0.75989   0.10741   0.11449   0.00000  Uiso   1.00
C113   C     0.87189   0.91103   0.31394   0.00000  Uiso   1.00
C114   C     0.94297   0.87530   0.35148   0.00000  Uiso   1.00
C115   C     0.95298   0.76838   0.35724   0.00000  Uiso   1.00
H116   H     0.69399   0.84493   0.22069   0.00000  Uiso   1.00
H117   H     0.64368   0.91814   0.28963   0.00000  Uiso   1.00
H118   H     0.64465   0.91503   0.09864   0.00000  Uiso   1.00
H119   H     0.77713   0.68243   0.26519   0.00000  Uiso   1.00
H120   H     0.61391   0.02960   0.37957   0.00000  Uiso   1.00
H121   H     0.61597   0.02301   0.97686   0.00000  Uiso   1.00
H122   H     0.89531   0.53253   0.32806   0.00000  Uiso   1.00
H123   H     0.89448   0.07813   0.32500   0.00000  Uiso   1.00
H124   H     0.85517   0.16414   0.39967   0.00000  Uiso   1.00
H125   H     0.85614   0.16103   0.20867   0.00000  Uiso   1.00
H126   H     0.98861   0.92843   0.37522   0.00000  Uiso   1.00
H127   H     0.78556   0.22927   0.46888   0.00000  Uiso   1.00
H128   H     0.78762   0.22267   0.06616   0.00000  Uiso   1.00
H129   H     0.06697   0.73220   0.41737   0.00000  Uiso   1.00
O130   O     0.67025   0.18183   0.47144   0.00000  Uiso   1.00
O131   O     0.67296   0.17316   0.94309   0.00000  Uiso   1.00
O132   O     0.03945   0.52967   0.40386   0.00000  Uiso   1.00
N133   N     0.65971   0.06478   0.39036   0.00000  Uiso   1.00
N134   N     0.66163   0.05862   0.01384   0.00000  Uiso   1.00
N135   N     0.92279   0.60007   0.34217   0.00000  Uiso   1.00
N136   N     0.75208   0.17222   0.43841   0.00000  Uiso   1.00
N137   N     0.75399   0.16606   0.06190   0.00000  Uiso   1.00
N138   N     0.01516   0.70750   0.39022   0.00000  Uiso   1.00
C139   C     0.23992   0.39835   0.24459   0.00000  Uiso   1.00
C140   C     0.24040   0.47046   0.29652   0.00000  Uiso   1.00
C141   C     0.18934   0.47126   0.31340   0.00000  Uiso   1.00
C142   C     0.19937   0.54320   0.36212   0.00000  Uiso   1.00
C143   C     0.19111   0.64476   0.43805   0.00000  Uiso   1.00
C144   C     0.24092   0.46878   0.19275   0.00000  Uiso   1.00
C145   C     0.19030   0.46815   0.12238   0.00000  Uiso   1.00
C146   C     0.20078   0.53866   0.08374   0.00000  Uiso   1.00
C147   C     0.19336   0.63756   0.99856   0.00000  Uiso   1.00
C148   C     0.31289   0.34241   0.28324   0.00000  Uiso   1.00
C149   C     0.32280   0.23551   0.28895   0.00000  Uiso   1.00
C150   C     0.39388   0.19963   0.32649   0.00000  Uiso   1.00
C151   C     0.49820   0.10231   0.38182   0.00000  Uiso   1.00
C152   C     0.34854   0.52470   0.30111   0.00000  Uiso   1.00
C153   C     0.29939   0.53909   0.32721   0.00000  Uiso   1.00
C154   C     0.30951   0.61104   0.37592   0.00000  Uiso   1.00
C155   C     0.25848   0.61194   0.39287   0.00000  Uiso   1.00
C156   C     0.29991   0.53741   0.22344   0.00000  Uiso   1.00
C157   C     0.31048   0.60793   0.18490   0.00000  Uiso   1.00
C158   C     0.25989   0.60741   0.11449   0.00000  Uiso   1.00
C159   C     0.37189   0.41103   0.31394   0.00000  Uiso   1.00
C160   C     0.44297   0.37530   0.35148   0.00000  Uiso   1.00
C161   C     0.45298   0.26838   0.35724   0.00000  Uiso   1.00
H162   H     0.19399   0.34493   0.22069   0.00000  Uiso   1.00
H163   H     0.14368   0.41814   0.28963   0.00000  Uiso   1.00
H164   H     0.14465   0.41503   0.09864   0.00000  Uiso   1.00
H165   H     0.27713   0.18243   0.26519   0.00000  Uiso   1.00
H166   H     0.11391   0.52960   0.37957   0.00000  Uiso   1.00
H167   H     0.11597   0.52301   0.97686   0.00000  Uiso   1.00
H168   H     0.39531   0.03253   0.32806   0.00000  Uiso   1.00
H169   H     0.39448   0.57813   0.32500   0.00000  Uiso   1.00
H170   H     0.35517   0.66414   0.39967   0.00000  Uiso   1.00
H171   H     0.35614   0.66103   0.20867   0.00000  Uiso   1.00
H172   H     0.48861   0.42843   0.37522   0.00000  Uiso   1.00
H173   H     0.28556   0.72927   0.46888   0.00000  Uiso   1.00
H174   H     0.28762   0.72267   0.06616   0.00000  Uiso   1.00
H175   H     0.56697   0.23220   0.41737   0.00000  Uiso   1.00
O176   O     0.17025   0.68183   0.47144   0.00000  Uiso   1.00
O177   O     0.17296   0.67316   0.94309   0.00000  Uiso   1.00
O178   O     0.53945   0.02967   0.40386   0.00000  Uiso   1.00
N179   N     0.15971   0.56478   0.39036   0.00000  Uiso   1.00
N180   N     0.16163   0.55862   0.01384   0.00000  Uiso   1.00
N181   N     0.42279   0.10007   0.34217   0.00000  Uiso   1.00
N182   N     0.25208   0.67222   0.43841   0.00000  Uiso   1.00
N183   N     0.25399   0.66606   0.06190   0.00000  Uiso   1.00
N184   N     0.51516   0.20750   0.39022   0.00000  Uiso   1.00
C185   C     0.73992   0.10165   0.74459   0.00000  Uiso   1.00
C186   C     0.74040   0.02954   0.79652   0.00000  Uiso   1.00
C187   C     0.68934   0.02874   0.81340   0.00000  Uiso   1.00
C188   C     0.69937   0.95680   0.86212   0.00000  Uiso   1.00
C189   C     0.69111   0.85524   0.93805   0.00000  Uiso   1.00
C190   C     0.74092   0.03122   0.69275   0.00000  Uiso   1.00
C191   C     0.69030   0.03185   0.62238   0.00000  Uiso   1.00
C192   C     0.70078   0.96134   0.58374   0.00000  Uiso   1.00
C193   C     0.69336   0.86244   0.49856   0.00000  Uiso   1.00
C194   C     0.81289   0.15759   0.78324   0.00000  Uiso   1.00
C195   C     0.82280   0.26449   0.78895   0.00000  Uiso   1.00
C196   C     0.89388   0.30037   0.82649   0.00000  Uiso   1.00
C197   C     0.99820   0.39769   0.88182   0.00000  Uiso   1.00
C198   C     0.84854   0.97530   0.80111   0.00000  Uiso   1.00
C199   C     0.79939   0.96091   0.82721   0.00000  Uiso   1.00
C200   C     0.80951   0.88896   0.87592   0.00000  Uiso   1.00
C201   C     0.75848   0.88806   0.89287   0.00000  Uiso   1.00
C202   C     0.79991   0.96259   0.72344   0.00000  Uiso   1.00
C203   C     0.81048   0.89207   0.68490   0.00000  Uiso   1.00
C204   C     0.75989   0.89259   0.61449   0.00000  Uiso   1.00
C205   C     0.87189   0.08897   0.81394   0.00000  Uiso   1.00
C206   C     0.94297   0.12470   0.85148   0.00000  Uiso   1.00
C207   C     0.95298   0.23162   0.85724   0.00000  Uiso   1.00
H208   H     0.69399   0.15507   0.72069   0.00000  Uiso   1.00
H209   H     0.64368   0.08186   0.78963   0.00000  Uiso   1.00
H210   H     0.64465   0.08497   0.59864   0.00000  Uiso   1.00
H211   H     0.77713   0.31757   0.76519   0.00000  Uiso   1.00
H212   H     0.61391   0.97040   0.87957   0.00000  Uiso   1.00
H213   H     0.61597   0.97699   0.47686   0.00000  Uiso   1.00
H214   H     0.89531   0.46747   0.82806   0.00000  Uiso   1.00
H215   H     0.89448   0.92187   0.82500   0.00000  Uiso   1.00
H216   H     0.85517   0.83586   0.89967   0.00000  Uiso   1.00
H217   H     0.85614   0.83897   0.70867   0.00000  Uiso   1.00
H218   H     0.98861   0.07157   0.87522   0.00000  Uiso   1.00
H219   H     0.78556   0.77073   0.96888   0.00000  Uiso   1.00
H220   H     0.78762   0.77733   0.56616   0.00000  Uiso   1.00
H221   H     0.06697   0.26780   0.91737   0.00000  Uiso   1.00
O222   O     0.67025   0.81817   0.97144   0.00000  Uiso   1.00
O223   O     0.67296   0.82684   0.44309   0.00000  Uiso   1.00
O224   O     0.03945   0.47033   0.90386   0.00000  Uiso   1.00
N225   N     0.65971   0.93522   0.89036   0.00000  Uiso   1.00
N226   N     0.66163   0.94138   0.51384   0.00000  Uiso   1.00
N227   N     0.92279   0.39993   0.84217   0.00000  Uiso   1.00
N228   N     0.75208   0.82778   0.93841   0.00000  Uiso   1.00
N229   N     0.75399   0.83394   0.56190   0.00000  Uiso   1.00
N230   N     0.01516   0.29250   0.89022   0.00000  Uiso   1.00
C231   C     0.23992   0.60165   0.74459   0.00000  Uiso   1.00
C232   C     0.24040   0.52954   0.79652   0.00000  Uiso   1.00
C233   C     0.18934   0.52874   0.81340   0.00000  Uiso   1.00
C234   C     0.19937   0.45680   0.86212   0.00000  Uiso   1.00
C235   C     0.19111   0.35524   0.93805   0.00000  Uiso   1.00
C236   C     0.24092   0.53122   0.69275   0.00000  Uiso   1.00
C237   C     0.19030   0.53185   0.62238   0.00000  Uiso   1.00
C238   C     0.20078   0.46134   0.58374   0.00000  Uiso   1.00
C239   C     0.19336   0.36244   0.49856   0.00000  Uiso   1.00
C240   C     0.31289   0.65759   0.78324   0.00000  Uiso   1.00
C241   C     0.32280   0.76449   0.78895   0.00000  Uiso   1.00
C242   C     0.39388   0.80037   0.82649   0.00000  Uiso   1.00
C243   C     0.49820   0.89769   0.88182   0.00000  Uiso   1.00
C244   C     0.34854   0.47530   0.80111   0.00000  Uiso   1.00
C245   C     0.29939   0.46091   0.82721   0.00000  Uiso   1.00
C246   C     0.30951   0.38896   0.87592   0.00000  Uiso   1.00
C247   C     0.25848   0.38806   0.89287   0.00000  Uiso   1.00
C248   C     0.29991   0.46259   0.72344   0.00000  Uiso   1.00
C249   C     0.31048   0.39207   0.68490   0.00000  Uiso   1.00
C250   C     0.25989   0.39259   0.61449   0.00000  Uiso   1.00
C251   C     0.37189   0.58897   0.81394   0.00000  Uiso   1.00
C252   C     0.44297   0.62470   0.85148   0.00000  Uiso   1.00
C253   C     0.45298   0.73162   0.85724   0.00000  Uiso   1.00
H254   H     0.19399   0.65507   0.72069   0.00000  Uiso   1.00
H255   H     0.14368   0.58186   0.78963   0.00000  Uiso   1.00
H256   H     0.14465   0.58497   0.59864   0.00000  Uiso   1.00
H257   H     0.27713   0.81757   0.76519   0.00000  Uiso   1.00
H258   H     0.11391   0.47040   0.87957   0.00000  Uiso   1.00
H259   H     0.11597   0.47699   0.47686   0.00000  Uiso   1.00
H260   H     0.39531   0.96747   0.82806   0.00000  Uiso   1.00
H261   H     0.39448   0.42187   0.82500   0.00000  Uiso   1.00
H262   H     0.35517   0.33586   0.89967   0.00000  Uiso   1.00
H263   H     0.35614   0.33897   0.70867   0.00000  Uiso   1.00
H264   H     0.48861   0.57157   0.87522   0.00000  Uiso   1.00
H265   H     0.28556   0.27073   0.96888   0.00000  Uiso   1.00
H266   H     0.28762   0.27733   0.56616   0.00000  Uiso   1.00
H267   H     0.56697   0.76780   0.91737   0.00000  Uiso   1.00
O268   O     0.17025   0.31817   0.97144   0.00000  Uiso   1.00
O269   O     0.17296   0.32684   0.44309   0.00000  Uiso   1.00
O270   O     0.53945   0.97033   0.90386   0.00000  Uiso   1.00
N271   N     0.15971   0.43522   0.89036   0.00000  Uiso   1.00
N272   N     0.16163   0.44138   0.51384   0.00000  Uiso   1.00
N273   N     0.42279   0.89993   0.84217   0.00000  Uiso   1.00
N274   N     0.25208   0.32778   0.93841   0.00000  Uiso   1.00
N275   N     0.25399   0.33394   0.56190   0.00000  Uiso   1.00
N276   N     0.51516   0.79250   0.89022   0.00000  Uiso   1.00
C277   C     0.26008   0.10165   0.75541   0.00000  Uiso   1.00
C278   C     0.25960   0.02954   0.70348   0.00000  Uiso   1.00
C279   C     0.31066   0.02874   0.68660   0.00000  Uiso   1.00
C280   C     0.30063   0.95680   0.63788   0.00000  Uiso   1.00
C281   C     0.30889   0.85524   0.56195   0.00000  Uiso   1.00
C282   C     0.25908   0.03122   0.80725   0.00000  Uiso   1.00
C283   C     0.30970   0.03185   0.87762   0.00000  Uiso   1.00
C284   C     0.29922   0.96134   0.91626   0.00000  Uiso   1.00
C285   C     0.30664   0.86244   0.00144   0.00000  Uiso   1.00
C286   C     0.18711   0.15759   0.71676   0.00000  Uiso   1.00
C287   C     0.17720   0.26449   0.71105   0.00000  Uiso   1.00
C288   C     0.10612   0.30037   0.67351   0.00000  Uiso   1.00
C289   C     0.00180   0.39769   0.61818   0.00000  Uiso   1.00
C290   C     0.15146   0.97530   0.69889   0.00000  Uiso   1.00
C291   C     0.20061   0.96091   0.67279   0.00000  Uiso   1.00
C292   C     0.19049   0.88896   0.62408   0.00000  Uiso   1.00
C293   C     0.24152   0.88806   0.60713   0.00000  Uiso   1.00
C294   C     0.20009   0.96259   0.77656   0.00000  Uiso   1.00
C295   C     0.18952   0.89207   0.81510   0.00000  Uiso   1.00
C296   C     0.24011   0.89259   0.88551   0.00000  Uiso   1.00
C297   C     0.12811   0.08897   0.68606   0.00000  Uiso   1.00
C298   C     0.05703   0.12470   0.64852   0.00000  Uiso   1.00
C299   C     0.04702   0.23162   0.64276   0.00000  Uiso   1.00
H300   H     0.30601   0.15507   0.77931   0.00000  Uiso   1.00
H301   H     0.35632   0.08186   0.71037   0.00000  Uiso   1.00
H302   H     0.35535   0.08497   0.90136   0.00000  Uiso   1.00
H303   H     0.22287   0.31757   0.73481   0.00000  Uiso   1.00
H304   H     0.38609   0.97040   0.62043   0.00000  Uiso   1.00
H305   H     0.38403   0.97699   0.02314   0.00000  Uiso   1.00
H306   H     0.10469   0.46747   0.67194   0.00000  Uiso   1.00
H307   H     0.10552   0.92187   0.67500   0.00000  Uiso   1.00
H308   H     0.14483   0.83586   0.60033   0.00000  Uiso   1.00
H309   H     0.14386   0.83897   0.79133   0.00000  Uiso   1.00
H310   H     0.01139   0.07157   0.62478   0.00000  Uiso   1.00
H311   H     0.21444   0.77073   0.53112   0.00000  Uiso   1.00
H312   H     0.21238   0.77733   0.93384   0.00000  Uiso   1.00
H313   H     0.93303   0.26780   0.58263   0.00000  Uiso   1.00
O314   O     0.32975   0.81817   0.52856   0.00000  Uiso   1.00
O315   O     0.32704   0.82684   0.05691   0.00000  Uiso   1.00
O316   O     0.96055   0.47033   0.59614   0.00000  Uiso   1.00
N317   N     0.34029   0.93522   0.60964   0.00000  Uiso   1.00
N318   N     0.33837   0.94138   0.98616   0.00000  Uiso   1.00
N319   N     0.07721   0.39993   0.65783   0.00000  Uiso   1.00
N320   N     0.24792   0.82778   0.56159   0.00000  Uiso   1.00
N321   N     0.24601   0.83394   0.93810   0.00000  Uiso   1.00
N322   N     0.98484   0.29250   0.60978   0.00000  Uiso   1.00
C323   C     0.76008   0.60165   0.75541   0.00000  Uiso   1.00
C324   C     0.75960   0.52954   0.70348   0.00000  Uiso   1.00
C325   C     0.81066   0.52874   0.68660   0.00000  Uiso   1.00
C326   C     0.80063   0.45680   0.63788   0.00000  Uiso   1.00
C327   C     0.80889   0.35524   0.56195   0.00000  Uiso   1.00
C328   C     0.75908   0.53122   0.80725   0.00000  Uiso   1.00
C329   C     0.80970   0.53185   0.87762   0.00000  Uiso   1.00
C330   C     0.79922   0.46134   0.91626   0.00000  Uiso   1.00
C331   C     0.80664   0.36244   0.00144   0.00000  Uiso   1.00
C332   C     0.68711   0.65759   0.71676   0.00000  Uiso   1.00
C333   C     0.67720   0.76449   0.71105   0.00000  Uiso   1.00
C334   C     0.60612   0.80037   0.67351   0.00000  Uiso   1.00
C335   C     0.50180   0.89769   0.61818   0.00000  Uiso   1.00
C336   C     0.65146   0.47530   0.69889   0.00000  Uiso   1.00
C337   C     0.70061   0.46091   0.67279   0.00000  Uiso   1.00
C338   C     0.69049   0.38896   0.62408   0.00000  Uiso   1.00
C339   C     0.74152   0.38806   0.60713   0.00000  Uiso   1.00
C340   C     0.70009   0.46259   0.77656   0.00000  Uiso   1.00
C341   C     0.68952   0.39207   0.81510   0.00000  Uiso   1.00
C342   C     0.74011   0.39259   0.88551   0.00000  Uiso   1.00
C343   C     0.62811   0.58897   0.68606   0.00000  Uiso   1.00
C344   C     0.55703   0.62470   0.64852   0.00000  Uiso   1.00
C345   C     0.54702   0.73162   0.64276   0.00000  Uiso   1.00
H346   H     0.80601   0.65507   0.77931   0.00000  Uiso   1.00
H347   H     0.85632   0.58186   0.71037   0.00000  Uiso   1.00
H348   H     0.85535   0.58497   0.90136   0.00000  Uiso   1.00
H349   H     0.72287   0.81757   0.73481   0.00000  Uiso   1.00
H350   H     0.88609   0.47040   0.62043   0.00000  Uiso   1.00
H351   H     0.88403   0.47699   0.02314   0.00000  Uiso   1.00
H352   H     0.60469   0.96747   0.67194   0.00000  Uiso   1.00
H353   H     0.60552   0.42187   0.67500   0.00000  Uiso   1.00
H354   H     0.64483   0.33586   0.60033   0.00000  Uiso   1.00
H355   H     0.64386   0.33897   0.79133   0.00000  Uiso   1.00
H356   H     0.51139   0.57157   0.62478   0.00000  Uiso   1.00
H357   H     0.71444   0.27073   0.53112   0.00000  Uiso   1.00
H358   H     0.71238   0.27733   0.93384   0.00000  Uiso   1.00
H359   H     0.43303   0.76780   0.58263   0.00000  Uiso   1.00
O360   O     0.82975   0.31817   0.52856   0.00000  Uiso   1.00
O361   O     0.82704   0.32684   0.05691   0.00000  Uiso   1.00
O362   O     0.46055   0.97033   0.59614   0.00000  Uiso   1.00
N363   N     0.84029   0.43522   0.60964   0.00000  Uiso   1.00
N364   N     0.83837   0.44138   0.98616   0.00000  Uiso   1.00
N365   N     0.57721   0.89993   0.65783   0.00000  Uiso   1.00
N366   N     0.74792   0.32778   0.56159   0.00000  Uiso   1.00
N367   N     0.74601   0.33394   0.93810   0.00000  Uiso   1.00
N368   N     0.48484   0.79250   0.60978   0.00000  Uiso   1.00
