data_job_03658
_audit_creation_date              2018-12-19
_audit_creation_method            'Materials Studio'
_symmetry_space_group_name_H-M    'P1'
_symmetry_Int_Tables_number       1
_symmetry_cell_setting            triclinic
loop_
_symmetry_equiv_pos_as_xyz
  x,y,z
_cell_length_a                    17.0212
_cell_length_b                    17.0212
_cell_length_c                    12.6342
_cell_angle_alpha                 90.0000
_cell_angle_beta                  90.0000
_cell_angle_gamma                 90.0000
loop_
_atom_site_label
_atom_site_type_symbol
_atom_site_fract_x
_atom_site_fract_y
_atom_site_fract_z
_atom_site_U_iso_or_equiv
_atom_site_adp_type
_atom_site_occupancy
C1     C     0.71297   0.83887   0.08737   0.00000  Uiso   1.00
C2     C     0.69397   0.90096   0.00421   0.00000  Uiso   1.00
C3     C     0.73352   0.91169   0.90925   0.00000  Uiso   1.00
C4     C     0.70712   0.97175   0.84394   0.00000  Uiso   1.00
C5     C     0.68733   0.06095   0.71047   0.00000  Uiso   1.00
C6     C     0.72714   0.88345   0.19030   0.00000  Uiso   1.00
C7     C     0.79457   0.87946   0.25181   0.00000  Uiso   1.00
C8     C     0.79610   0.92478   0.34317   0.00000  Uiso   1.00
C9     C     0.82778   0.98676   0.49865   0.00000  Uiso   1.00
C10    C     0.63748   0.79220   0.10383   0.00000  Uiso   1.00
C11    C     0.62953   0.71148   0.09267   0.00000  Uiso   1.00
C12    C     0.55557   0.67996   0.11125   0.00000  Uiso   1.00
C13    C     0.44804   0.60025   0.13248   0.00000  Uiso   1.00
C14    C     0.59576   0.92643   0.14024   0.00000  Uiso   1.00
C15    C     0.63030   0.94852   0.03293   0.00000  Uiso   1.00
C16    C     0.60384   0.00857   0.96775   0.00000  Uiso   1.00
C17    C     0.64334   0.01939   0.87271   0.00000  Uiso   1.00
C18    C     0.66348   0.93101   0.21902   0.00000  Uiso   1.00
C19    C     0.66490   0.97634   0.31031   0.00000  Uiso   1.00
C20    C     0.73232   0.97242   0.37194   0.00000  Uiso   1.00
C21    C     0.57381   0.83976   0.13255   0.00000  Uiso   1.00
C22    C     0.49985   0.80835   0.15117   0.00000  Uiso   1.00
C23    C     0.49179   0.72760   0.14003   0.00000  Uiso   1.00
H24    H     0.76253   0.80184   0.06501   0.00000  Uiso   1.00
H25    H     0.78279   0.87488   0.88706   0.00000  Uiso   1.00
H26    H     0.84383   0.84265   0.22957   0.00000  Uiso   1.00
H27    H     0.67881   0.67469   0.07045   0.00000  Uiso   1.00
H28    H     0.77718   0.97685   0.70244   0.00000  Uiso   1.00
H29    H     0.90588   0.90887   0.42467   0.00000  Uiso   1.00
H30    H     0.55791   0.55469   0.08913   0.00000  Uiso   1.00
H31    H     0.54619   0.96345   0.16261   0.00000  Uiso   1.00
H32    H     0.55457   0.04536   0.99000   0.00000  Uiso   1.00
H33    H     0.61562   0.01313   0.33251   0.00000  Uiso   1.00
H34    H     0.45060   0.84517   0.17339   0.00000  Uiso   1.00
H35    H     0.59196   0.11523   0.78599   0.00000  Uiso   1.00
H36    H     0.72066   0.04724   0.50823   0.00000  Uiso   1.00
H37    H     0.37269   0.69307   0.17268   0.00000  Uiso   1.00
O38    O     0.69400   0.09702   0.62893   0.00000  Uiso   1.00
O39    O     0.86285   0.00781   0.57647   0.00000  Uiso   1.00
O40    O     0.40632   0.54315   0.13624   0.00000  Uiso   1.00
N41    N     0.73243   0.99817   0.74578   0.00000  Uiso   1.00
N42    N     0.85276   0.93461   0.42102   0.00000  Uiso   1.00
N43    N     0.52744   0.60349   0.10734   0.00000  Uiso   1.00
N44    N     0.63276   0.07262   0.79074   0.00000  Uiso   1.00
N45    N     0.75310   0.00907   0.46597   0.00000  Uiso   1.00
N46    N     0.42778   0.67795   0.15230   0.00000  Uiso   1.00
C47    C     0.28703   0.16113   0.08737   0.00000  Uiso   1.00
C48    C     0.30603   0.09904   0.00421   0.00000  Uiso   1.00
C49    C     0.26648   0.08831   0.90925   0.00000  Uiso   1.00
C50    C     0.29288   0.02825   0.84394   0.00000  Uiso   1.00
C51    C     0.31267   0.93905   0.71047   0.00000  Uiso   1.00
C52    C     0.27286   0.11655   0.19030   0.00000  Uiso   1.00
C53    C     0.20543   0.12054   0.25181   0.00000  Uiso   1.00
C54    C     0.20390   0.07522   0.34317   0.00000  Uiso   1.00
C55    C     0.17222   0.01324   0.49865   0.00000  Uiso   1.00
C56    C     0.36252   0.20780   0.10383   0.00000  Uiso   1.00
C57    C     0.37047   0.28852   0.09267   0.00000  Uiso   1.00
C58    C     0.44443   0.32004   0.11125   0.00000  Uiso   1.00
C59    C     0.55196   0.39975   0.13248   0.00000  Uiso   1.00
C60    C     0.40424   0.07357   0.14024   0.00000  Uiso   1.00
C61    C     0.36970   0.05148   0.03293   0.00000  Uiso   1.00
C62    C     0.39616   0.99143   0.96775   0.00000  Uiso   1.00
C63    C     0.35666   0.98061   0.87271   0.00000  Uiso   1.00
C64    C     0.33652   0.06899   0.21902   0.00000  Uiso   1.00
C65    C     0.33510   0.02366   0.31031   0.00000  Uiso   1.00
C66    C     0.26768   0.02758   0.37194   0.00000  Uiso   1.00
C67    C     0.42619   0.16024   0.13255   0.00000  Uiso   1.00
C68    C     0.50015   0.19165   0.15117   0.00000  Uiso   1.00
C69    C     0.50821   0.27240   0.14003   0.00000  Uiso   1.00
H70    H     0.23747   0.19816   0.06501   0.00000  Uiso   1.00
H71    H     0.21721   0.12512   0.88706   0.00000  Uiso   1.00
H72    H     0.15617   0.15735   0.22957   0.00000  Uiso   1.00
H73    H     0.32119   0.32531   0.07045   0.00000  Uiso   1.00
H74    H     0.22282   0.02315   0.70244   0.00000  Uiso   1.00
H75    H     0.09412   0.09113   0.42467   0.00000  Uiso   1.00
H76    H     0.44209   0.44531   0.08913   0.00000  Uiso   1.00
H77    H     0.45381   0.03655   0.16261   0.00000  Uiso   1.00
H78    H     0.44543   0.95464   0.99000   0.00000  Uiso   1.00
H79    H     0.38438   0.98687   0.33251   0.00000  Uiso   1.00
H80    H     0.54940   0.15483   0.17339   0.00000  Uiso   1.00
H81    H     0.40804   0.88477   0.78599   0.00000  Uiso   1.00
H82    H     0.27934   0.95276   0.50823   0.00000  Uiso   1.00
H83    H     0.62731   0.30693   0.17268   0.00000  Uiso   1.00
O84    O     0.30600   0.90298   0.62893   0.00000  Uiso   1.00
O85    O     0.13715   0.99219   0.57647   0.00000  Uiso   1.00
O86    O     0.59368   0.45685   0.13624   0.00000  Uiso   1.00
N87    N     0.26757   0.00183   0.74578   0.00000  Uiso   1.00
N88    N     0.14724   0.06539   0.42102   0.00000  Uiso   1.00
N89    N     0.47256   0.39651   0.10734   0.00000  Uiso   1.00
N90    N     0.36724   0.92738   0.79074   0.00000  Uiso   1.00
N91    N     0.24690   0.99093   0.46597   0.00000  Uiso   1.00
N92    N     0.57222   0.32205   0.15230   0.00000  Uiso   1.00
C93    C     0.83887   0.28703   0.91263   0.00000  Uiso   1.00
C94    C     0.90096   0.30603   0.99579   0.00000  Uiso   1.00
C95    C     0.91169   0.26648   0.09075   0.00000  Uiso   1.00
C96    C     0.97175   0.29288   0.15606   0.00000  Uiso   1.00
C97    C     0.06095   0.31267   0.28953   0.00000  Uiso   1.00
C98    C     0.88345   0.27286   0.80970   0.00000  Uiso   1.00
C99    C     0.87946   0.20543   0.74819   0.00000  Uiso   1.00
C100   C     0.92478   0.20390   0.65683   0.00000  Uiso   1.00
C101   C     0.98676   0.17222   0.50135   0.00000  Uiso   1.00
C102   C     0.79220   0.36252   0.89617   0.00000  Uiso   1.00
C103   C     0.71148   0.37047   0.90733   0.00000  Uiso   1.00
C104   C     0.67996   0.44443   0.88875   0.00000  Uiso   1.00
C105   C     0.60025   0.55196   0.86752   0.00000  Uiso   1.00
C106   C     0.92643   0.40424   0.85976   0.00000  Uiso   1.00
C107   C     0.94852   0.36970   0.96707   0.00000  Uiso   1.00
C108   C     0.00857   0.39616   0.03225   0.00000  Uiso   1.00
C109   C     0.01939   0.35666   0.12729   0.00000  Uiso   1.00
C110   C     0.93101   0.33652   0.78098   0.00000  Uiso   1.00
C111   C     0.97634   0.33510   0.68969   0.00000  Uiso   1.00
C112   C     0.97242   0.26768   0.62806   0.00000  Uiso   1.00
C113   C     0.83976   0.42619   0.86745   0.00000  Uiso   1.00
C114   C     0.80835   0.50015   0.84883   0.00000  Uiso   1.00
C115   C     0.72760   0.50821   0.85997   0.00000  Uiso   1.00
H116   H     0.80184   0.23747   0.93499   0.00000  Uiso   1.00
H117   H     0.87488   0.21721   0.11294   0.00000  Uiso   1.00
H118   H     0.84265   0.15617   0.77043   0.00000  Uiso   1.00
H119   H     0.67469   0.32119   0.92955   0.00000  Uiso   1.00
H120   H     0.97685   0.22282   0.29756   0.00000  Uiso   1.00
H121   H     0.90887   0.09412   0.57533   0.00000  Uiso   1.00
H122   H     0.55469   0.44209   0.91087   0.00000  Uiso   1.00
H123   H     0.96345   0.45381   0.83739   0.00000  Uiso   1.00
H124   H     0.04536   0.44543   0.01000   0.00000  Uiso   1.00
H125   H     0.01313   0.38438   0.66749   0.00000  Uiso   1.00
H126   H     0.84517   0.54940   0.82661   0.00000  Uiso   1.00
H127   H     0.11523   0.40804   0.21401   0.00000  Uiso   1.00
H128   H     0.04724   0.27934   0.49177   0.00000  Uiso   1.00
H129   H     0.69307   0.62731   0.82732   0.00000  Uiso   1.00
O130   O     0.09702   0.30600   0.37107   0.00000  Uiso   1.00
O131   O     0.00781   0.13715   0.42353   0.00000  Uiso   1.00
O132   O     0.54315   0.59368   0.86376   0.00000  Uiso   1.00
N133   N     0.99817   0.26757   0.25422   0.00000  Uiso   1.00
N134   N     0.93461   0.14724   0.57898   0.00000  Uiso   1.00
N135   N     0.60349   0.47256   0.89266   0.00000  Uiso   1.00
N136   N     0.07262   0.36724   0.20926   0.00000  Uiso   1.00
N137   N     0.00907   0.24690   0.53403   0.00000  Uiso   1.00
N138   N     0.67795   0.57222   0.84770   0.00000  Uiso   1.00
C139   C     0.16113   0.71297   0.91263   0.00000  Uiso   1.00
C140   C     0.09904   0.69397   0.99579   0.00000  Uiso   1.00
C141   C     0.08831   0.73352   0.09075   0.00000  Uiso   1.00
C142   C     0.02825   0.70712   0.15606   0.00000  Uiso   1.00
C143   C     0.93905   0.68733   0.28953   0.00000  Uiso   1.00
C144   C     0.11655   0.72714   0.80970   0.00000  Uiso   1.00
C145   C     0.12054   0.79457   0.74819   0.00000  Uiso   1.00
C146   C     0.07522   0.79610   0.65683   0.00000  Uiso   1.00
C147   C     0.01324   0.82778   0.50135   0.00000  Uiso   1.00
C148   C     0.20780   0.63748   0.89617   0.00000  Uiso   1.00
C149   C     0.28852   0.62953   0.90733   0.00000  Uiso   1.00
C150   C     0.32004   0.55557   0.88875   0.00000  Uiso   1.00
C151   C     0.39975   0.44804   0.86752   0.00000  Uiso   1.00
C152   C     0.07357   0.59576   0.85976   0.00000  Uiso   1.00
C153   C     0.05148   0.63030   0.96707   0.00000  Uiso   1.00
C154   C     0.99143   0.60384   0.03225   0.00000  Uiso   1.00
C155   C     0.98061   0.64334   0.12729   0.00000  Uiso   1.00
C156   C     0.06899   0.66348   0.78098   0.00000  Uiso   1.00
C157   C     0.02366   0.66490   0.68969   0.00000  Uiso   1.00
C158   C     0.02758   0.73232   0.62806   0.00000  Uiso   1.00
C159   C     0.16024   0.57381   0.86745   0.00000  Uiso   1.00
C160   C     0.19165   0.49985   0.84883   0.00000  Uiso   1.00
C161   C     0.27240   0.49179   0.85997   0.00000  Uiso   1.00
H162   H     0.19816   0.76253   0.93499   0.00000  Uiso   1.00
H163   H     0.12512   0.78279   0.11294   0.00000  Uiso   1.00
H164   H     0.15735   0.84383   0.77043   0.00000  Uiso   1.00
H165   H     0.32531   0.67881   0.92955   0.00000  Uiso   1.00
H166   H     0.02315   0.77718   0.29756   0.00000  Uiso   1.00
H167   H     0.09113   0.90588   0.57533   0.00000  Uiso   1.00
H168   H     0.44531   0.55791   0.91087   0.00000  Uiso   1.00
H169   H     0.03655   0.54619   0.83739   0.00000  Uiso   1.00
H170   H     0.95464   0.55457   0.01000   0.00000  Uiso   1.00
H171   H     0.98687   0.61562   0.66749   0.00000  Uiso   1.00
H172   H     0.15483   0.45060   0.82661   0.00000  Uiso   1.00
H173   H     0.88477   0.59196   0.21401   0.00000  Uiso   1.00
H174   H     0.95276   0.72066   0.49177   0.00000  Uiso   1.00
H175   H     0.30693   0.37269   0.82732   0.00000  Uiso   1.00
O176   O     0.90298   0.69400   0.37107   0.00000  Uiso   1.00
O177   O     0.99219   0.86285   0.42353   0.00000  Uiso   1.00
O178   O     0.45685   0.40632   0.86376   0.00000  Uiso   1.00
N179   N     0.00183   0.73243   0.25422   0.00000  Uiso   1.00
N180   N     0.06539   0.85276   0.57898   0.00000  Uiso   1.00
N181   N     0.39651   0.52744   0.89266   0.00000  Uiso   1.00
N182   N     0.92738   0.63276   0.20926   0.00000  Uiso   1.00
N183   N     0.99093   0.75310   0.53403   0.00000  Uiso   1.00
N184   N     0.32205   0.42778   0.84770   0.00000  Uiso   1.00
