data_job_06471
_audit_creation_date              2018-12-19
_audit_creation_method            'Materials Studio'
_symmetry_space_group_name_H-M    'P1'
_symmetry_Int_Tables_number       1
_symmetry_cell_setting            triclinic
loop_
_symmetry_equiv_pos_as_xyz
  x,y,z
_cell_length_a                    15.7952
_cell_length_b                    22.2732
_cell_length_c                    22.7793
_cell_angle_alpha                 68.0590
_cell_angle_beta                  77.2885
_cell_angle_gamma                 106.3023
loop_
_atom_site_label
_atom_site_type_symbol
_atom_site_fract_x
_atom_site_fract_y
_atom_site_fract_z
_atom_site_U_iso_or_equiv
_atom_site_adp_type
_atom_site_occupancy
C1     C     0.83119   0.54497   0.35661   0.00000  Uiso   1.00
C2     C     0.93090   0.59976   0.30906   0.00000  Uiso   1.00
C3     C     0.96819   0.66918   0.29762   0.00000  Uiso   1.00
C4     C     0.06085   0.71093   0.25222   0.00000  Uiso   1.00
C5     C     0.20754   0.80008   0.18333   0.00000  Uiso   1.00
C6     C     0.78645   0.51881   0.31318   0.00000  Uiso   1.00
C7     C     0.70227   0.52016   0.30522   0.00000  Uiso   1.00
C8     C     0.67333   0.49376   0.26330   0.00000  Uiso   1.00
C9     C     0.59571   0.45719   0.20085   0.00000  Uiso   1.00
C10    C     0.84356   0.48256   0.40628   0.00000  Uiso   1.00
C11    C     0.80739   0.45341   0.47661   0.00000  Uiso   1.00
C12    C     0.82651   0.39647   0.51307   0.00000  Uiso   1.00
C13    C     0.83758   0.30362   0.59518   0.00000  Uiso   1.00
C14    C     0.92945   0.49566   0.29632   0.00000  Uiso   1.00
C15    C     0.98427   0.57297   0.27631   0.00000  Uiso   1.00
C16    C     0.07691   0.61463   0.23091   0.00000  Uiso   1.00
C17    C     0.11432   0.68410   0.21941   0.00000  Uiso   1.00
C18    C     0.83982   0.49203   0.28043   0.00000  Uiso   1.00
C19    C     0.81099   0.46561   0.23851   0.00000  Uiso   1.00
C20    C     0.72679   0.46693   0.23049   0.00000  Uiso   1.00
C21    C     0.89694   0.45577   0.37353   0.00000  Uiso   1.00
C22    C     0.91611   0.39886   0.40990   0.00000  Uiso   1.00
C23    C     0.87998   0.36964   0.48026   0.00000  Uiso   1.00
H24    H     0.78964   0.56582   0.38211   0.00000  Uiso   1.00
H25    H     0.92686   0.68989   0.32297   0.00000  Uiso   1.00
H26    H     0.66098   0.54089   0.33058   0.00000  Uiso   1.00
H27    H     0.76609   0.47415   0.50193   0.00000  Uiso   1.00
H28    H     0.10252   0.81564   0.24294   0.00000  Uiso   1.00
H29    H     0.54188   0.50144   0.25900   0.00000  Uiso   1.00
H30    H     0.76352   0.36071   0.62034   0.00000  Uiso   1.00
H31    H     0.97101   0.47481   0.27082   0.00000  Uiso   1.00
H32    H     0.11819   0.59389   0.20558   0.00000  Uiso   1.00
H33    H     0.85231   0.44488   0.21318   0.00000  Uiso   1.00
H34    H     0.95742   0.37815   0.38454   0.00000  Uiso   1.00
H35    H     0.25781   0.73772   0.14766   0.00000  Uiso   1.00
H36    H     0.69717   0.42352   0.16371   0.00000  Uiso   1.00
H37    H     0.91881   0.28279   0.52506   0.00000  Uiso   1.00
O38    O     0.27370   0.85666   0.15437   0.00000  Uiso   1.00
O39    O     0.53816   0.44443   0.17544   0.00000  Uiso   1.00
O40    O     0.82895   0.25981   0.64952   0.00000  Uiso   1.00
N41    N     0.11888   0.78095   0.22948   0.00000  Uiso   1.00
N42    N     0.59472   0.48721   0.24448   0.00000  Uiso   1.00
N43    N     0.80191   0.35563   0.58231   0.00000  Uiso   1.00
N44    N     0.20244   0.73903   0.17821   0.00000  Uiso   1.00
N45    N     0.67828   0.44528   0.19321   0.00000  Uiso   1.00
N46    N     0.88547   0.31370   0.53104   0.00000  Uiso   1.00
C47    C     0.78485   0.12182   0.02345   0.00000  Uiso   1.00
C48    C     0.82759   0.11229   0.07847   0.00000  Uiso   1.00
C49    C     0.78404   0.05897   0.14519   0.00000  Uiso   1.00
C50    C     0.83491   0.05945   0.18768   0.00000  Uiso   1.00
C51    C     0.88739   0.03676   0.27668   0.00000  Uiso   1.00
C52    C     0.78707   0.19626   0.99729   0.00000  Uiso   1.00
C53    C     0.70946   0.21355   0.99576   0.00000  Uiso   1.00
C54    C     0.72623   0.28472   0.96990   0.00000  Uiso   1.00
C55    C     0.71582   0.39241   0.93283   0.00000  Uiso   1.00
C56    C     0.85486   0.12247   0.96499   0.00000  Uiso   1.00
C57    C     0.83425   0.07771   0.93628   0.00000  Uiso   1.00
C58    C     0.90810   0.08676   0.88322   0.00000  Uiso   1.00
C59    C     0.00295   0.07988   0.79600   0.00000  Uiso   1.00
C60    C     0.95264   0.21748   0.98026   0.00000  Uiso   1.00
C61    C     0.91872   0.16425   0.05501   0.00000  Uiso   1.00
C62    C     0.96968   0.16481   0.09740   0.00000  Uiso   1.00
C63    C     0.92622   0.11150   0.16417   0.00000  Uiso   1.00
C64    C     0.87820   0.24822   0.97383   0.00000  Uiso   1.00
C65    C     0.89510   0.31939   0.94797   0.00000  Uiso   1.00
C66    C     0.81753   0.33677   0.94639   0.00000  Uiso   1.00
C67    C     0.94600   0.17442   0.94153   0.00000  Uiso   1.00
C68    C     0.01990   0.18355   0.88850   0.00000  Uiso   1.00
C69    C     0.99940   0.13882   0.85971   0.00000  Uiso   1.00
H70    H     0.71389   0.08137   0.04172   0.00000  Uiso   1.00
H71    H     0.71350   0.01877   0.16333   0.00000  Uiso   1.00
H72    H     0.63894   0.17333   0.01391   0.00000  Uiso   1.00
H73    H     0.76372   0.03751   0.95445   0.00000  Uiso   1.00
H74    H     0.75325   0.97230   0.28782   0.00000  Uiso   1.00
H75    H     0.59603   0.29819   0.97274   0.00000  Uiso   1.00
H76    H     0.85915   0.01180   0.84736   0.00000  Uiso   1.00
H77    H     0.02360   0.25794   0.96199   0.00000  Uiso   1.00
H78    H     0.04021   0.20502   0.07923   0.00000  Uiso   1.00
H79    H     0.96564   0.35958   0.92981   0.00000  Uiso   1.00
H80    H     0.09041   0.22376   0.87035   0.00000  Uiso   1.00
H81    H     0.01841   0.12347   0.21956   0.00000  Uiso   1.00
H82    H     0.86119   0.44936   0.90448   0.00000  Uiso   1.00
H83    H     0.12431   0.16297   0.77910   0.00000  Uiso   1.00
O84    O     0.89116   0.00990   0.33226   0.00000  Uiso   1.00
O85    O     0.68490   0.43746   0.91888   0.00000  Uiso   1.00
O86    O     0.03010   0.06172   0.75438   0.00000  Uiso   1.00
N87    N     0.81339   0.01513   0.25566   0.00000  Uiso   1.00
N88    N     0.66639   0.31982   0.96109   0.00000  Uiso   1.00
N89    N     0.91238   0.05208   0.84386   0.00000  Uiso   1.00
N90    N     0.95607   0.09647   0.21893   0.00000  Uiso   1.00
N91    N     0.80907   0.40116   0.92436   0.00000  Uiso   1.00
N92    N     0.05506   0.13342   0.80713   0.00000  Uiso   1.00
C93    C     0.23184   0.86398   0.61569   0.00000  Uiso   1.00
C94    C     0.27015   0.81106   0.60662   0.00000  Uiso   1.00
C95    C     0.28642   0.80034   0.54966   0.00000  Uiso   1.00
C96    C     0.32164   0.74945   0.55129   0.00000  Uiso   1.00
C97    C     0.37830   0.67314   0.52862   0.00000  Uiso   1.00
C98    C     0.14363   0.82126   0.68046   0.00000  Uiso   1.00
C99    C     0.05353   0.81913   0.68557   0.00000  Uiso   1.00
C100   C     0.98225   0.77684   0.74935   0.00000  Uiso   1.00
C101   C     0.84250   0.71641   0.84131   0.00000  Uiso   1.00
C102   C     0.30477   0.91074   0.63138   0.00000  Uiso   1.00
C103   C     0.35015   0.98384   0.59524   0.00000  Uiso   1.00
C104   C     0.41453   0.01688   0.61772   0.00000  Uiso   1.00
C105   C     0.52497   0.09538   0.63348   0.00000  Uiso   1.00
C106   C     0.26545   0.79266   0.71987   0.00000  Uiso   1.00
C107   C     0.28840   0.77232   0.66321   0.00000  Uiso   1.00
C108   C     0.32361   0.72143   0.66492   0.00000  Uiso   1.00
C109   C     0.33993   0.71064   0.60797   0.00000  Uiso   1.00
C110   C     0.16188   0.78253   0.73704   0.00000  Uiso   1.00
C111   C     0.09072   0.74022   0.80083   0.00000  Uiso   1.00
C112   C     0.00053   0.73803   0.80604   0.00000  Uiso   1.00
C113   C     0.32303   0.87200   0.68796   0.00000  Uiso   1.00
C114   C     0.38734   0.90493   0.71050   0.00000  Uiso   1.00
C115   C     0.43281   0.97807   0.67440   0.00000  Uiso   1.00
H116   H     0.21762   0.89414   0.57164   0.00000  Uiso   1.00
H117   H     0.27227   0.83033   0.50588   0.00000  Uiso   1.00
H118   H     0.03943   0.84912   0.64177   0.00000  Uiso   1.00
H119   H     0.33600   0.01380   0.55146   0.00000  Uiso   1.00
H120   H     0.34089   0.74248   0.45795   0.00000  Uiso   1.00
H121   H     0.84992   0.78213   0.74448   0.00000  Uiso   1.00
H122   H     0.47531   0.12939   0.55404   0.00000  Uiso   1.00
H123   H     0.27966   0.76250   0.76392   0.00000  Uiso   1.00
H124   H     0.33773   0.69146   0.70872   0.00000  Uiso   1.00
H125   H     0.10487   0.71026   0.84460   0.00000  Uiso   1.00
H126   H     0.40145   0.87493   0.75429   0.00000  Uiso   1.00
H127   H     0.39401   0.62976   0.62258   0.00000  Uiso   1.00
H128   H     0.90303   0.66942   0.90911   0.00000  Uiso   1.00
H129   H     0.52843   0.01667   0.71866   0.00000  Uiso   1.00
O130   O     0.40449   0.64175   0.50049   0.00000  Uiso   1.00
O131   O     0.76036   0.69378   0.87640   0.00000  Uiso   1.00
O132   O     0.58086   0.14937   0.62654   0.00000  Uiso   1.00
N133   N     0.34544   0.72571   0.50426   0.00000  Uiso   1.00
N134   N     0.88641   0.76277   0.77215   0.00000  Uiso   1.00
N135   N     0.47108   0.08743   0.59411   0.00000  Uiso   1.00
N136   N     0.37402   0.66506   0.59285   0.00000  Uiso   1.00
N137   N     0.91499   0.70212   0.86073   0.00000  Uiso   1.00
N138   N     0.49966   0.02678   0.68270   0.00000  Uiso   1.00
C139   C     0.62712   0.91948   0.87095   0.00000  Uiso   1.00
C140   C     0.67140   0.89450   0.92359   0.00000  Uiso   1.00
C141   C     0.65792   0.90235   0.98215   0.00000  Uiso   1.00
C142   C     0.70469   0.87589   0.02379   0.00000  Uiso   1.00
C143   C     0.76457   0.84210   0.10803   0.00000  Uiso   1.00
C144   C     0.57385   0.85432   0.86548   0.00000  Uiso   1.00
C145   C     0.47836   0.82841   0.87518   0.00000  Uiso   1.00
C146   C     0.44302   0.76814   0.86789   0.00000  Uiso   1.00
C147   C     0.35146   0.67201   0.86187   0.00000  Uiso   1.00
C148   C     0.70944   0.96785   0.80309   0.00000  Uiso   1.00
C149   C     0.72794   0.03738   0.76033   0.00000  Uiso   1.00
C150   C     0.80675   0.07269   0.70051   0.00000  Uiso   1.00
C151   C     0.92571   0.15283   0.59763   0.00000  Uiso   1.00
C152   C     0.73414   0.85854   0.84075   0.00000  Uiso   1.00
C153   C     0.72952   0.86139   0.90718   0.00000  Uiso   1.00
C154   C     0.77633   0.83492   0.94874   0.00000  Uiso   1.00
C155   C     0.76293   0.84273   0.00735   0.00000  Uiso   1.00
C156   C     0.63197   0.82122   0.84907   0.00000  Uiso   1.00
C157   C     0.59677   0.76098   0.84176   0.00000  Uiso   1.00
C158   C     0.50125   0.73498   0.85146   0.00000  Uiso   1.00
C159   C     0.76757   0.93475   0.78669   0.00000  Uiso   1.00
C160   C     0.84635   0.96996   0.72692   0.00000  Uiso   1.00
C161   C     0.86498   0.03953   0.68407   0.00000  Uiso   1.00
H162   H     0.58186   0.94525   0.88372   0.00000  Uiso   1.00
H163   H     0.61292   0.92796   0.99483   0.00000  Uiso   1.00
H164   H     0.43340   0.85404   0.88787   0.00000  Uiso   1.00
H165   H     0.68294   0.06298   0.77304   0.00000  Uiso   1.00
H166   H     0.67298   0.89417   0.11080   0.00000  Uiso   1.00
H167   H     0.29444   0.73832   0.88523   0.00000  Uiso   1.00
H168   H     0.82066   0.17892   0.64310   0.00000  Uiso   1.00
H169   H     0.77939   0.83276   0.82798   0.00000  Uiso   1.00
H170   H     0.82131   0.80931   0.93603   0.00000  Uiso   1.00
H171   H     0.64177   0.73538   0.82907   0.00000  Uiso   1.00
H172   H     0.89132   0.94433   0.71424   0.00000  Uiso   1.00
H173   H     0.84211   0.79786   0.06307   0.00000  Uiso   1.00
H174   H     0.46356   0.64201   0.83751   0.00000  Uiso   1.00
H175   H     0.98978   0.08261   0.59537   0.00000  Uiso   1.00
O176   O     0.78152   0.83259   0.15903   0.00000  Uiso   1.00
O177   O     0.28490   0.62813   0.86309   0.00000  Uiso   1.00
O178   O     0.97528   0.20619   0.54542   0.00000  Uiso   1.00
N179   N     0.70705   0.87474   0.08473   0.00000  Uiso   1.00
N180   N     0.35313   0.72902   0.87385   0.00000  Uiso   1.00
N181   N     0.84508   0.14094   0.64747   0.00000  Uiso   1.00
N182   N     0.79805   0.82292   0.05905   0.00000  Uiso   1.00
N183   N     0.44413   0.67720   0.84817   0.00000  Uiso   1.00
N184   N     0.93609   0.08911   0.62178   0.00000  Uiso   1.00
C185   C     0.46773   0.33360   0.74639   0.00000  Uiso   1.00
C186   C     0.56642   0.39243   0.71576   0.00000  Uiso   1.00
C187   C     0.60970   0.44608   0.64918   0.00000  Uiso   1.00
C188   C     0.70022   0.49483   0.63106   0.00000  Uiso   1.00
C189   C     0.84652   0.58694   0.57639   0.00000  Uiso   1.00
C190   C     0.41341   0.33790   0.80789   0.00000  Uiso   1.00
C191   C     0.32804   0.34568   0.81877   0.00000  Uiso   1.00
C192   C     0.28976   0.34853   0.87821   0.00000  Uiso   1.00
C193   C     0.19848   0.35591   0.96659   0.00000  Uiso   1.00
C194   C     0.48077   0.26444   0.77458   0.00000  Uiso   1.00
C195   C     0.45201   0.21043   0.75748   0.00000  Uiso   1.00
C196   C     0.47042   0.15141   0.78889   0.00000  Uiso   1.00
C197   C     0.48372   0.04473   0.82556   0.00000  Uiso   1.00
C198   C     0.55153   0.32480   0.83258   0.00000  Uiso   1.00
C199   C     0.61193   0.38765   0.76258   0.00000  Uiso   1.00
C200   C     0.70242   0.43634   0.74455   0.00000  Uiso   1.00
C201   C     0.74583   0.49004   0.67796   0.00000  Uiso   1.00
C202   C     0.45893   0.33312   0.85471   0.00000  Uiso   1.00
C203   C     0.42076   0.33595   0.91414   0.00000  Uiso   1.00
C204   C     0.33536   0.34374   0.92511   0.00000  Uiso   1.00
C205   C     0.52629   0.25965   0.82140   0.00000  Uiso   1.00
C206   C     0.54474   0.20070   0.85284   0.00000  Uiso   1.00
C207   C     0.51602   0.14662   0.83579   0.00000  Uiso   1.00
H208   H     0.43229   0.33732   0.70994   0.00000  Uiso   1.00
H209   H     0.57445   0.44976   0.61297   0.00000  Uiso   1.00
H210   H     0.29283   0.34938   0.78254   0.00000  Uiso   1.00
H211   H     0.41679   0.21415   0.72125   0.00000  Uiso   1.00
H212   H     0.75212   0.57233   0.52611   0.00000  Uiso   1.00
H213   H     0.15830   0.36064   0.88367   0.00000  Uiso   1.00
H214   H     0.41969   0.07549   0.75443   0.00000  Uiso   1.00
H215   H     0.58696   0.32107   0.86903   0.00000  Uiso   1.00
H216   H     0.73762   0.43263   0.78079   0.00000  Uiso   1.00
H217   H     0.45600   0.33224   0.95036   0.00000  Uiso   1.00
H218   H     0.57996   0.19702   0.88907   0.00000  Uiso   1.00
H219   H     0.88456   0.55843   0.66232   0.00000  Uiso   1.00
H220   H     0.29073   0.34673   0.01988   0.00000  Uiso   1.00
H221   H     0.55212   0.06158   0.89064   0.00000  Uiso   1.00
O222   O     0.91464   0.63907   0.53330   0.00000  Uiso   1.00
O223   O     0.13556   0.36132   0.00241   0.00000  Uiso   1.00
O224   O     0.47850   0.98721   0.83285   0.00000  Uiso   1.00
N225   N     0.76262   0.55374   0.57028   0.00000  Uiso   1.00
N226   N     0.20744   0.35583   0.90456   0.00000  Uiso   1.00
N227   N     0.45179   0.08923   0.78375   0.00000  Uiso   1.00
N228   N     0.83389   0.54626   0.64357   0.00000  Uiso   1.00
N229   N     0.27870   0.34835   0.97786   0.00000  Uiso   1.00
N230   N     0.52306   0.08175   0.85705   0.00000  Uiso   1.00
C231   C     0.17522   0.23544   0.43265   0.00000  Uiso   1.00
C232   C     0.22300   0.19143   0.41300   0.00000  Uiso   1.00
C233   C     0.18375   0.11843   0.43990   0.00000  Uiso   1.00
C234   C     0.23885   0.08812   0.41521   0.00000  Uiso   1.00
C235   C     0.29918   0.01350   0.39226   0.00000  Uiso   1.00
C236   C     0.17554   0.28889   0.36681   0.00000  Uiso   1.00
C237   C     0.09639   0.29784   0.35487   0.00000  Uiso   1.00
C238   C     0.11156   0.34959   0.29130   0.00000  Uiso   1.00
C239   C     0.09821   0.42632   0.19665   0.00000  Uiso   1.00
C240   C     0.24201   0.27808   0.45531   0.00000  Uiso   1.00
C241   C     0.21874   0.27796   0.51777   0.00000  Uiso   1.00
C242   C     0.28987   0.32062   0.52871   0.00000  Uiso   1.00
C243   C     0.37972   0.38056   0.57147   0.00000  Uiso   1.00
C244   C     0.34290   0.31143   0.34099   0.00000  Uiso   1.00
C245   C     0.31408   0.23270   0.36322   0.00000  Uiso   1.00
C246   C     0.36926   0.20250   0.33849   0.00000  Uiso   1.00
C247   C     0.33010   0.12947   0.36534   0.00000  Uiso   1.00
C248   C     0.26662   0.33017   0.31703   0.00000  Uiso   1.00
C249   C     0.28191   0.38192   0.25346   0.00000  Uiso   1.00
C250   C     0.20280   0.39094   0.24142   0.00000  Uiso   1.00
C251   C     0.33309   0.31935   0.40553   0.00000  Uiso   1.00
C252   C     0.40426   0.36203   0.41637   0.00000  Uiso   1.00
C253   C     0.38111   0.36197   0.47884   0.00000  Uiso   1.00
H254   H     0.10431   0.20331   0.47140   0.00000  Uiso   1.00
H255   H     0.11325   0.08650   0.47842   0.00000  Uiso   1.00
H256   H     0.02592   0.26590   0.39340   0.00000  Uiso   1.00
H257   H     0.14825   0.24601   0.55628   0.00000  Uiso   1.00
H258   H     0.16333   0.97521   0.46422   0.00000  Uiso   1.00
H259   H     0.97917   0.35349   0.28497   0.00000  Uiso   1.00
H260   H     0.23714   0.31155   0.62844   0.00000  Uiso   1.00
H261   H     0.41381   0.34357   0.30223   0.00000  Uiso   1.00
H262   H     0.43974   0.23446   0.29997   0.00000  Uiso   1.00
H263   H     0.35240   0.41385   0.21495   0.00000  Uiso   1.00
H264   H     0.47474   0.39396   0.37783   0.00000  Uiso   1.00
H265   H     0.42831   0.09529   0.31939   0.00000  Uiso   1.00
H266   H     0.24415   0.47357   0.14014   0.00000  Uiso   1.00
H267   H     0.50213   0.43164   0.48360   0.00000  Uiso   1.00
O268   O     0.30728   0.96094   0.39335   0.00000  Uiso   1.00
O269   O     0.06568   0.45724   0.15819   0.00000  Uiso   1.00
O270   O     0.40413   0.40222   0.60881   0.00000  Uiso   1.00
N271   N     0.22214   0.01844   0.43046   0.00000  Uiso   1.00
N272   N     0.04996   0.37210   0.26287   0.00000  Uiso   1.00
N273   N     0.29114   0.33291   0.58397   0.00000  Uiso   1.00
N274   N     0.36473   0.08306   0.35252   0.00000  Uiso   1.00
N275   N     0.19255   0.43672   0.18493   0.00000  Uiso   1.00
N276   N     0.43372   0.39753   0.50603   0.00000  Uiso   1.00
C277   C     0.16881   0.45503   0.64339   0.00000  Uiso   1.00
C278   C     0.06910   0.40024   0.69094   0.00000  Uiso   1.00
C279   C     0.03181   0.33082   0.70238   0.00000  Uiso   1.00
C280   C     0.93915   0.28907   0.74778   0.00000  Uiso   1.00
C281   C     0.79246   0.19992   0.81667   0.00000  Uiso   1.00
C282   C     0.21355   0.48119   0.68682   0.00000  Uiso   1.00
C283   C     0.29773   0.47984   0.69478   0.00000  Uiso   1.00
C284   C     0.32667   0.50624   0.73670   0.00000  Uiso   1.00
C285   C     0.40429   0.54281   0.79915   0.00000  Uiso   1.00
C286   C     0.15644   0.51744   0.59372   0.00000  Uiso   1.00
C287   C     0.19261   0.54659   0.52339   0.00000  Uiso   1.00
C288   C     0.17349   0.60353   0.48693   0.00000  Uiso   1.00
C289   C     0.16242   0.69638   0.40482   0.00000  Uiso   1.00
C290   C     0.07055   0.50434   0.70368   0.00000  Uiso   1.00
C291   C     0.01573   0.42703   0.72369   0.00000  Uiso   1.00
C292   C     0.92309   0.38537   0.76909   0.00000  Uiso   1.00
C293   C     0.88568   0.31590   0.78059   0.00000  Uiso   1.00
C294   C     0.16018   0.50797   0.71957   0.00000  Uiso   1.00
C295   C     0.18901   0.53439   0.76149   0.00000  Uiso   1.00
C296   C     0.27321   0.53307   0.76951   0.00000  Uiso   1.00
C297   C     0.10306   0.54423   0.62647   0.00000  Uiso   1.00
C298   C     0.08389   0.60114   0.59010   0.00000  Uiso   1.00
C299   C     0.12002   0.63036   0.51974   0.00000  Uiso   1.00
H300   H     0.21036   0.43418   0.61789   0.00000  Uiso   1.00
H301   H     0.07314   0.31011   0.67703   0.00000  Uiso   1.00
H302   H     0.33902   0.45911   0.66942   0.00000  Uiso   1.00
H303   H     0.23391   0.52585   0.49807   0.00000  Uiso   1.00
H304   H     0.89748   0.18436   0.75706   0.00000  Uiso   1.00
H305   H     0.45812   0.49856   0.74100   0.00000  Uiso   1.00
H306   H     0.23648   0.63929   0.37966   0.00000  Uiso   1.00
H307   H     0.02899   0.52519   0.72918   0.00000  Uiso   1.00
H308   H     0.88181   0.40611   0.79442   0.00000  Uiso   1.00
H309   H     0.14769   0.55512   0.78682   0.00000  Uiso   1.00
H310   H     0.04258   0.62185   0.61546   0.00000  Uiso   1.00
H311   H     0.74219   0.26228   0.85234   0.00000  Uiso   1.00
H312   H     0.30283   0.57648   0.83629   0.00000  Uiso   1.00
H313   H     0.08119   0.71721   0.47494   0.00000  Uiso   1.00
O314   O     0.72630   0.14334   0.84563   0.00000  Uiso   1.00
O315   O     0.46184   0.55557   0.82456   0.00000  Uiso   1.00
O316   O     0.17105   0.74019   0.35048   0.00000  Uiso   1.00
N317   N     0.88112   0.21905   0.77052   0.00000  Uiso   1.00
N318   N     0.40528   0.51279   0.75552   0.00000  Uiso   1.00
N319   N     0.19809   0.64437   0.41769   0.00000  Uiso   1.00
N320   N     0.79756   0.26097   0.82179   0.00000  Uiso   1.00
N321   N     0.32172   0.55472   0.80679   0.00000  Uiso   1.00
N322   N     0.11453   0.68630   0.46896   0.00000  Uiso   1.00
C323   C     0.21515   0.87818   0.97655   0.00000  Uiso   1.00
C324   C     0.17241   0.88771   0.92153   0.00000  Uiso   1.00
C325   C     0.21596   0.94103   0.85481   0.00000  Uiso   1.00
C326   C     0.16509   0.94055   0.81232   0.00000  Uiso   1.00
C327   C     0.11261   0.96324   0.72332   0.00000  Uiso   1.00
C328   C     0.21293   0.80374   0.00271   0.00000  Uiso   1.00
C329   C     0.29054   0.78645   0.00424   0.00000  Uiso   1.00
C330   C     0.27377   0.71528   0.03010   0.00000  Uiso   1.00
C331   C     0.28418   0.60759   0.06717   0.00000  Uiso   1.00
C332   C     0.14514   0.87753   0.03501   0.00000  Uiso   1.00
C333   C     0.16575   0.92229   0.06372   0.00000  Uiso   1.00
C334   C     0.09190   0.91324   0.11678   0.00000  Uiso   1.00
C335   C     0.99705   0.92012   0.20400   0.00000  Uiso   1.00
C336   C     0.04736   0.78252   0.01974   0.00000  Uiso   1.00
C337   C     0.08128   0.83575   0.94499   0.00000  Uiso   1.00
C338   C     0.03032   0.83519   0.90260   0.00000  Uiso   1.00
C339   C     0.07378   0.88850   0.83583   0.00000  Uiso   1.00
C340   C     0.12180   0.75178   0.02617   0.00000  Uiso   1.00
C341   C     0.10490   0.68061   0.05203   0.00000  Uiso   1.00
C342   C     0.18247   0.66323   0.05361   0.00000  Uiso   1.00
C343   C     0.05400   0.82558   0.05847   0.00000  Uiso   1.00
C344   C     0.98010   0.81645   0.11150   0.00000  Uiso   1.00
C345   C     0.00060   0.86118   0.14029   0.00000  Uiso   1.00
H346   H     0.28611   0.91863   0.95828   0.00000  Uiso   1.00
H347   H     0.28650   0.98123   0.83667   0.00000  Uiso   1.00
H348   H     0.36106   0.82667   0.98609   0.00000  Uiso   1.00
H349   H     0.23628   0.96249   0.04555   0.00000  Uiso   1.00
H350   H     0.24675   0.02770   0.71218   0.00000  Uiso   1.00
H351   H     0.40397   0.70181   0.02726   0.00000  Uiso   1.00
H352   H     0.14085   0.98820   0.15264   0.00000  Uiso   1.00
H353   H     0.97640   0.74206   0.03801   0.00000  Uiso   1.00
H354   H     0.95979   0.79498   0.92077   0.00000  Uiso   1.00
H355   H     0.03436   0.64042   0.07019   0.00000  Uiso   1.00
H356   H     0.90959   0.77624   0.12965   0.00000  Uiso   1.00
H357   H     0.98159   0.87653   0.78044   0.00000  Uiso   1.00
H358   H     0.13881   0.55064   0.09552   0.00000  Uiso   1.00
H359   H     0.87569   0.83703   0.22090   0.00000  Uiso   1.00
O360   O     0.10884   0.99010   0.66774   0.00000  Uiso   1.00
O361   O     0.31510   0.56254   0.08112   0.00000  Uiso   1.00
O362   O     0.96990   0.93828   0.24562   0.00000  Uiso   1.00
N363   N     0.18661   0.98487   0.74434   0.00000  Uiso   1.00
N364   N     0.33361   0.68018   0.03891   0.00000  Uiso   1.00
N365   N     0.08762   0.94792   0.15614   0.00000  Uiso   1.00
N366   N     0.04393   0.90353   0.78107   0.00000  Uiso   1.00
N367   N     0.19093   0.59884   0.07564   0.00000  Uiso   1.00
N368   N     0.94494   0.86658   0.19287   0.00000  Uiso   1.00
C369   C     0.76816   0.13602   0.38431   0.00000  Uiso   1.00
C370   C     0.72985   0.18894   0.39338   0.00000  Uiso   1.00
C371   C     0.71358   0.19966   0.45034   0.00000  Uiso   1.00
C372   C     0.67836   0.25055   0.44871   0.00000  Uiso   1.00
C373   C     0.62170   0.32686   0.47138   0.00000  Uiso   1.00
C374   C     0.85637   0.17874   0.31954   0.00000  Uiso   1.00
C375   C     0.94647   0.18087   0.31443   0.00000  Uiso   1.00
C376   C     0.01775   0.22316   0.25065   0.00000  Uiso   1.00
C377   C     0.15750   0.28359   0.15869   0.00000  Uiso   1.00
C378   C     0.69523   0.08926   0.36862   0.00000  Uiso   1.00
C379   C     0.64985   0.01616   0.40476   0.00000  Uiso   1.00
C380   C     0.58547   0.98312   0.38228   0.00000  Uiso   1.00
C381   C     0.47503   0.90462   0.36652   0.00000  Uiso   1.00
C382   C     0.73455   0.20734   0.28013   0.00000  Uiso   1.00
C383   C     0.71160   0.22768   0.33679   0.00000  Uiso   1.00
C384   C     0.67639   0.27857   0.33508   0.00000  Uiso   1.00
C385   C     0.66007   0.28936   0.39203   0.00000  Uiso   1.00
C386   C     0.83812   0.21747   0.26296   0.00000  Uiso   1.00
C387   C     0.90928   0.25978   0.19917   0.00000  Uiso   1.00
C388   C     0.99947   0.26197   0.19396   0.00000  Uiso   1.00
C389   C     0.67697   0.12800   0.31204   0.00000  Uiso   1.00
C390   C     0.61266   0.09507   0.28950   0.00000  Uiso   1.00
C391   C     0.56719   0.02193   0.32560   0.00000  Uiso   1.00
H392   H     0.78238   0.10586   0.42836   0.00000  Uiso   1.00
H393   H     0.72773   0.16967   0.49412   0.00000  Uiso   1.00
H394   H     0.96057   0.15088   0.35823   0.00000  Uiso   1.00
H395   H     0.66400   0.98620   0.44854   0.00000  Uiso   1.00
H396   H     0.65911   0.25752   0.54205   0.00000  Uiso   1.00
H397   H     0.15008   0.21787   0.25552   0.00000  Uiso   1.00
H398   H     0.52469   0.87061   0.44596   0.00000  Uiso   1.00
H399   H     0.72034   0.23750   0.23608   0.00000  Uiso   1.00
H400   H     0.66227   0.30854   0.29128   0.00000  Uiso   1.00
H401   H     0.89513   0.28974   0.15540   0.00000  Uiso   1.00
H402   H     0.59855   0.12507   0.24571   0.00000  Uiso   1.00
H403   H     0.60599   0.37024   0.37742   0.00000  Uiso   1.00
H404   H     0.09697   0.33058   0.09089   0.00000  Uiso   1.00
H405   H     0.47157   0.98333   0.28134   0.00000  Uiso   1.00
O406   O     0.59551   0.35825   0.49951   0.00000  Uiso   1.00
O407   O     0.23964   0.30622   0.12360   0.00000  Uiso   1.00
O408   O     0.41914   0.85063   0.37346   0.00000  Uiso   1.00
N409   N     0.65456   0.27429   0.49574   0.00000  Uiso   1.00
N410   N     0.11359   0.23723   0.22785   0.00000  Uiso   1.00
N411   N     0.52892   0.91257   0.40589   0.00000  Uiso   1.00
N412   N     0.62598   0.33494   0.40715   0.00000  Uiso   1.00
N413   N     0.08501   0.29788   0.13927   0.00000  Uiso   1.00
N414   N     0.50034   0.97322   0.31730   0.00000  Uiso   1.00
C415   C     0.37288   0.08052   0.12905   0.00000  Uiso   1.00
C416   C     0.32860   0.10550   0.07641   0.00000  Uiso   1.00
C417   C     0.34208   0.09765   0.01785   0.00000  Uiso   1.00
C418   C     0.29531   0.12411   0.97621   0.00000  Uiso   1.00
C419   C     0.23543   0.15790   0.89197   0.00000  Uiso   1.00
C420   C     0.42615   0.14568   0.13452   0.00000  Uiso   1.00
C421   C     0.52164   0.17159   0.12482   0.00000  Uiso   1.00
C422   C     0.55698   0.23186   0.13211   0.00000  Uiso   1.00
C423   C     0.64854   0.32799   0.13813   0.00000  Uiso   1.00
C424   C     0.29056   0.03215   0.19691   0.00000  Uiso   1.00
C425   C     0.27206   0.96262   0.23967   0.00000  Uiso   1.00
C426   C     0.19325   0.92731   0.29949   0.00000  Uiso   1.00
C427   C     0.07429   0.84717   0.40237   0.00000  Uiso   1.00
C428   C     0.26586   0.14146   0.15925   0.00000  Uiso   1.00
C429   C     0.27048   0.13861   0.09282   0.00000  Uiso   1.00
C430   C     0.22367   0.16508   0.05126   0.00000  Uiso   1.00
C431   C     0.23707   0.15727   0.99265   0.00000  Uiso   1.00
C432   C     0.36803   0.17878   0.15093   0.00000  Uiso   1.00
C433   C     0.40323   0.23902   0.15824   0.00000  Uiso   1.00
C434   C     0.49875   0.26502   0.14854   0.00000  Uiso   1.00
C435   C     0.23243   0.06525   0.21331   0.00000  Uiso   1.00
C436   C     0.15365   0.03004   0.27308   0.00000  Uiso   1.00
C437   C     0.13502   0.96047   0.31593   0.00000  Uiso   1.00
H438   H     0.41814   0.05475   0.11628   0.00000  Uiso   1.00
H439   H     0.38708   0.07204   0.00517   0.00000  Uiso   1.00
H440   H     0.56660   0.14596   0.11213   0.00000  Uiso   1.00
H441   H     0.31706   0.93702   0.22696   0.00000  Uiso   1.00
H442   H     0.32702   0.10583   0.88920   0.00000  Uiso   1.00
H443   H     0.70556   0.26168   0.11477   0.00000  Uiso   1.00
H444   H     0.17934   0.82108   0.35690   0.00000  Uiso   1.00
H445   H     0.22061   0.16724   0.17202   0.00000  Uiso   1.00
H446   H     0.17869   0.19069   0.06397   0.00000  Uiso   1.00
H447   H     0.35823   0.26462   0.17093   0.00000  Uiso   1.00
H448   H     0.10868   0.05567   0.28576   0.00000  Uiso   1.00
H449   H     0.15789   0.20214   0.93693   0.00000  Uiso   1.00
H450   H     0.53644   0.35799   0.16249   0.00000  Uiso   1.00
H451   H     0.01022   0.91739   0.40463   0.00000  Uiso   1.00
O452   O     0.21848   0.16741   0.84097   0.00000  Uiso   1.00
O453   O     0.71510   0.37187   0.13691   0.00000  Uiso   1.00
O454   O     0.02472   0.79381   0.45458   0.00000  Uiso   1.00
N455   N     0.29295   0.12526   0.91527   0.00000  Uiso   1.00
N456   N     0.64687   0.27098   0.12615   0.00000  Uiso   1.00
N457   N     0.15492   0.85906   0.35253   0.00000  Uiso   1.00
N458   N     0.20195   0.17708   0.94095   0.00000  Uiso   1.00
N459   N     0.55587   0.32280   0.15183   0.00000  Uiso   1.00
N460   N     0.06391   0.91089   0.37822   0.00000  Uiso   1.00
C461   C     0.53227   0.66640   0.25361   0.00000  Uiso   1.00
C462   C     0.43358   0.60757   0.28424   0.00000  Uiso   1.00
C463   C     0.39030   0.55392   0.35082   0.00000  Uiso   1.00
C464   C     0.29978   0.50517   0.36894   0.00000  Uiso   1.00
C465   C     0.15348   0.41306   0.42361   0.00000  Uiso   1.00
C466   C     0.58659   0.66210   0.19211   0.00000  Uiso   1.00
C467   C     0.67196   0.65432   0.18123   0.00000  Uiso   1.00
C468   C     0.71024   0.65147   0.12179   0.00000  Uiso   1.00
C469   C     0.80152   0.64409   0.03341   0.00000  Uiso   1.00
C470   C     0.51923   0.73556   0.22542   0.00000  Uiso   1.00
C471   C     0.54799   0.78957   0.24252   0.00000  Uiso   1.00
C472   C     0.52958   0.84859   0.21111   0.00000  Uiso   1.00
C473   C     0.51628   0.95527   0.17444   0.00000  Uiso   1.00
C474   C     0.44847   0.67520   0.16742   0.00000  Uiso   1.00
C475   C     0.38807   0.61235   0.23742   0.00000  Uiso   1.00
C476   C     0.29758   0.56366   0.25545   0.00000  Uiso   1.00
C477   C     0.25417   0.50996   0.32204   0.00000  Uiso   1.00
C478   C     0.54107   0.66688   0.14529   0.00000  Uiso   1.00
C479   C     0.57924   0.66405   0.08586   0.00000  Uiso   1.00
C480   C     0.66464   0.65626   0.07489   0.00000  Uiso   1.00
C481   C     0.47371   0.74035   0.17860   0.00000  Uiso   1.00
C482   C     0.45526   0.79930   0.14716   0.00000  Uiso   1.00
C483   C     0.48398   0.85338   0.16421   0.00000  Uiso   1.00
H484   H     0.56771   0.66268   0.29006   0.00000  Uiso   1.00
H485   H     0.42555   0.55024   0.38703   0.00000  Uiso   1.00
H486   H     0.70717   0.65062   0.21746   0.00000  Uiso   1.00
H487   H     0.58321   0.78585   0.27875   0.00000  Uiso   1.00
H488   H     0.24788   0.42767   0.47389   0.00000  Uiso   1.00
H489   H     0.84170   0.63936   0.11633   0.00000  Uiso   1.00
H490   H     0.58031   0.92451   0.24557   0.00000  Uiso   1.00
H491   H     0.41304   0.67893   0.13097   0.00000  Uiso   1.00
H492   H     0.26238   0.56737   0.21921   0.00000  Uiso   1.00
H493   H     0.54400   0.66776   0.04964   0.00000  Uiso   1.00
H494   H     0.42004   0.80298   0.11093   0.00000  Uiso   1.00
H495   H     0.11544   0.44157   0.33768   0.00000  Uiso   1.00
H496   H     0.70927   0.65327   0.98012   0.00000  Uiso   1.00
H497   H     0.44788   0.93842   0.10936   0.00000  Uiso   1.00
O498   O     0.08536   0.36093   0.46670   0.00000  Uiso   1.00
O499   O     0.86444   0.63868   0.99759   0.00000  Uiso   1.00
O500   O     0.52150   0.01279   0.16715   0.00000  Uiso   1.00
N501   N     0.23738   0.44626   0.42972   0.00000  Uiso   1.00
N502   N     0.79256   0.64417   0.09544   0.00000  Uiso   1.00
N503   N     0.54821   0.91077   0.21625   0.00000  Uiso   1.00
N504   N     0.16611   0.45374   0.35643   0.00000  Uiso   1.00
N505   N     0.72130   0.65165   0.02214   0.00000  Uiso   1.00
N506   N     0.47694   0.91825   0.14295   0.00000  Uiso   1.00
C507   C     0.82478   0.76456   0.56735   0.00000  Uiso   1.00
C508   C     0.77700   0.80857   0.58700   0.00000  Uiso   1.00
C509   C     0.81625   0.88157   0.56010   0.00000  Uiso   1.00
C510   C     0.76115   0.91188   0.58479   0.00000  Uiso   1.00
C511   C     0.70082   0.98650   0.60774   0.00000  Uiso   1.00
C512   C     0.82446   0.71111   0.63319   0.00000  Uiso   1.00
C513   C     0.90361   0.70216   0.64513   0.00000  Uiso   1.00
C514   C     0.88844   0.65041   0.70870   0.00000  Uiso   1.00
C515   C     0.90179   0.57368   0.80335   0.00000  Uiso   1.00
C516   C     0.75799   0.72192   0.54469   0.00000  Uiso   1.00
C517   C     0.78126   0.72204   0.48223   0.00000  Uiso   1.00
C518   C     0.71013   0.67938   0.47129   0.00000  Uiso   1.00
C519   C     0.62028   0.61944   0.42853   0.00000  Uiso   1.00
C520   C     0.65710   0.68857   0.65901   0.00000  Uiso   1.00
C521   C     0.68592   0.76730   0.63678   0.00000  Uiso   1.00
C522   C     0.63074   0.79750   0.66151   0.00000  Uiso   1.00
C523   C     0.66990   0.87053   0.63466   0.00000  Uiso   1.00
C524   C     0.73338   0.66983   0.68297   0.00000  Uiso   1.00
C525   C     0.71809   0.61808   0.74654   0.00000  Uiso   1.00
C526   C     0.79720   0.60906   0.75858   0.00000  Uiso   1.00
C527   C     0.66691   0.68065   0.59447   0.00000  Uiso   1.00
C528   C     0.59574   0.63797   0.58363   0.00000  Uiso   1.00
C529   C     0.61889   0.63803   0.52116   0.00000  Uiso   1.00
H530   H     0.89569   0.79669   0.52860   0.00000  Uiso   1.00
H531   H     0.88675   0.91350   0.52158   0.00000  Uiso   1.00
H532   H     0.97408   0.73410   0.60660   0.00000  Uiso   1.00
H533   H     0.85175   0.75399   0.44372   0.00000  Uiso   1.00
H534   H     0.83667   0.02479   0.53578   0.00000  Uiso   1.00
H535   H     0.02083   0.64651   0.71503   0.00000  Uiso   1.00
H536   H     0.76286   0.68845   0.37156   0.00000  Uiso   1.00
H537   H     0.58619   0.65643   0.69777   0.00000  Uiso   1.00
H538   H     0.56026   0.76554   0.70003   0.00000  Uiso   1.00
H539   H     0.64760   0.58615   0.78505   0.00000  Uiso   1.00
H540   H     0.52526   0.60604   0.62217   0.00000  Uiso   1.00
H541   H     0.57169   0.90471   0.68061   0.00000  Uiso   1.00
H542   H     0.75585   0.52643   0.85986   0.00000  Uiso   1.00
H543   H     0.49787   0.56836   0.51640   0.00000  Uiso   1.00
O544   O     0.69272   0.03906   0.60665   0.00000  Uiso   1.00
O545   O     0.93432   0.54276   0.84181   0.00000  Uiso   1.00
O546   O     0.59587   0.59778   0.39119   0.00000  Uiso   1.00
N547   N     0.77786   0.98156   0.56954   0.00000  Uiso   1.00
N548   N     0.95004   0.62790   0.73713   0.00000  Uiso   1.00
N549   N     0.70886   0.66709   0.41603   0.00000  Uiso   1.00
N550   N     0.63527   0.91694   0.64748   0.00000  Uiso   1.00
N551   N     0.80745   0.56328   0.81507   0.00000  Uiso   1.00
N552   N     0.56628   0.60247   0.49397   0.00000  Uiso   1.00
