data_job_00188
_audit_creation_date              2018-12-19
_audit_creation_method            'Materials Studio'
_symmetry_space_group_name_H-M    'P1'
_symmetry_Int_Tables_number       1
_symmetry_cell_setting            triclinic
loop_
_symmetry_equiv_pos_as_xyz
  x,y,z
_cell_length_a                    22.7467
_cell_length_b                    18.4796
_cell_length_c                    11.1093
_cell_angle_alpha                 90.0000
_cell_angle_beta                  90.0000
_cell_angle_gamma                 90.0000
loop_
_atom_site_label
_atom_site_type_symbol
_atom_site_fract_x
_atom_site_fract_y
_atom_site_fract_z
_atom_site_U_iso_or_equiv
_atom_site_adp_type
_atom_site_occupancy
C1     C     0.80730   0.28534   0.71730   0.00000  Uiso   1.00
C2     C     0.84661   0.22673   0.77077   0.00000  Uiso   1.00
C3     C     0.83384   0.15334   0.77481   0.00000  Uiso   1.00
C4     C     0.87552   0.10852   0.82752   0.00000  Uiso   1.00
C5     C     0.92855   0.01331   0.90346   0.00000  Uiso   1.00
C6     C     0.79718   0.34024   0.81766   0.00000  Uiso   1.00
C7     C     0.74285   0.36229   0.86112   0.00000  Uiso   1.00
C8     C     0.74293   0.41304   0.95329   0.00000  Uiso   1.00
C9     C     0.71922   0.49409   0.10197   0.00000  Uiso   1.00
C10    C     0.84439   0.32395   0.62269   0.00000  Uiso   1.00
C11    C     0.82975   0.33231   0.50222   0.00000  Uiso   1.00
C12    C     0.86956   0.36935   0.43024   0.00000  Uiso   1.00
C13    C     0.91915   0.42510   0.27621   0.00000  Uiso   1.00
C14    C     0.90402   0.33626   0.80371   0.00000  Uiso   1.00
C15    C     0.89914   0.25439   0.81771   0.00000  Uiso   1.00
C16    C     0.94085   0.20967   0.87042   0.00000  Uiso   1.00
C17    C     0.92815   0.13623   0.87454   0.00000  Uiso   1.00
C18    C     0.84971   0.36790   0.86460   0.00000  Uiso   1.00
C19    C     0.84987   0.41863   0.95672   0.00000  Uiso   1.00
C20    C     0.79556   0.44074   0.00031   0.00000  Uiso   1.00
C21    C     0.89692   0.35160   0.66963   0.00000  Uiso   1.00
C22    C     0.93676   0.38864   0.59783   0.00000  Uiso   1.00
C23    C     0.92219   0.39705   0.47726   0.00000  Uiso   1.00
H24    H     0.76639   0.26381   0.68076   0.00000  Uiso   1.00
H25    H     0.79317   0.13196   0.73849   0.00000  Uiso   1.00
H26    H     0.70220   0.34089   0.82477   0.00000  Uiso   1.00
H27    H     0.78909   0.31090   0.46593   0.00000  Uiso   1.00
H28    H     0.84602   0.99797   0.82323   0.00000  Uiso   1.00
H29    H     0.65421   0.43852   0.00513   0.00000  Uiso   1.00
H30    H     0.83741   0.37530   0.24844   0.00000  Uiso   1.00
H31    H     0.94492   0.35780   0.84025   0.00000  Uiso   1.00
H32    H     0.98151   0.23109   0.90673   0.00000  Uiso   1.00
H33    H     0.89053   0.44002   0.99301   0.00000  Uiso   1.00
H34    H     0.97741   0.41003   0.63418   0.00000  Uiso   1.00
H35    H     0.99888   0.07843   0.95979   0.00000  Uiso   1.00
H36    H     0.80706   0.51899   0.14168   0.00000  Uiso   1.00
H37    H     0.99027   0.45576   0.38500   0.00000  Uiso   1.00
O38    O     0.94328   0.95316   0.93240   0.00000  Uiso   1.00
O39    O     0.69163   0.53116   0.17102   0.00000  Uiso   1.00
O40    O     0.93199   0.44820   0.17827   0.00000  Uiso   1.00
N41    N     0.87698   0.03430   0.84623   0.00000  Uiso   1.00
N42    N     0.69765   0.44618   0.01630   0.00000  Uiso   1.00
N43    N     0.86892   0.38708   0.30887   0.00000  Uiso   1.00
N44    N     0.95923   0.07759   0.91970   0.00000  Uiso   1.00
N45    N     0.77990   0.48947   0.08978   0.00000  Uiso   1.00
N46    N     0.95117   0.43038   0.38235   0.00000  Uiso   1.00
C47    C     0.69270   0.21466   0.21730   0.00000  Uiso   1.00
C48    C     0.65339   0.27327   0.27077   0.00000  Uiso   1.00
C49    C     0.66616   0.34666   0.27481   0.00000  Uiso   1.00
C50    C     0.62448   0.39148   0.32752   0.00000  Uiso   1.00
C51    C     0.57145   0.48669   0.40346   0.00000  Uiso   1.00
C52    C     0.70282   0.15976   0.31766   0.00000  Uiso   1.00
C53    C     0.75715   0.13771   0.36112   0.00000  Uiso   1.00
C54    C     0.75707   0.08696   0.45329   0.00000  Uiso   1.00
C55    C     0.78078   0.00591   0.60197   0.00000  Uiso   1.00
C56    C     0.65561   0.17605   0.12269   0.00000  Uiso   1.00
C57    C     0.67025   0.16769   0.00222   0.00000  Uiso   1.00
C58    C     0.63044   0.13065   0.93024   0.00000  Uiso   1.00
C59    C     0.58085   0.07490   0.77621   0.00000  Uiso   1.00
C60    C     0.59598   0.16374   0.30371   0.00000  Uiso   1.00
C61    C     0.60086   0.24561   0.31771   0.00000  Uiso   1.00
C62    C     0.55915   0.29033   0.37042   0.00000  Uiso   1.00
C63    C     0.57185   0.36377   0.37454   0.00000  Uiso   1.00
C64    C     0.65029   0.13210   0.36460   0.00000  Uiso   1.00
C65    C     0.65013   0.08137   0.45672   0.00000  Uiso   1.00
C66    C     0.70444   0.05926   0.50031   0.00000  Uiso   1.00
C67    C     0.60308   0.14840   0.16963   0.00000  Uiso   1.00
C68    C     0.56324   0.11136   0.09783   0.00000  Uiso   1.00
C69    C     0.57781   0.10295   0.97726   0.00000  Uiso   1.00
H70    H     0.73361   0.23619   0.18076   0.00000  Uiso   1.00
H71    H     0.70683   0.36804   0.23849   0.00000  Uiso   1.00
H72    H     0.79780   0.15911   0.32477   0.00000  Uiso   1.00
H73    H     0.71091   0.18910   0.96593   0.00000  Uiso   1.00
H74    H     0.65398   0.50203   0.32323   0.00000  Uiso   1.00
H75    H     0.84579   0.06148   0.50513   0.00000  Uiso   1.00
H76    H     0.66259   0.12470   0.74844   0.00000  Uiso   1.00
H77    H     0.55508   0.14220   0.34025   0.00000  Uiso   1.00
H78    H     0.51849   0.26891   0.40673   0.00000  Uiso   1.00
H79    H     0.60947   0.05998   0.49301   0.00000  Uiso   1.00
H80    H     0.52259   0.08997   0.13418   0.00000  Uiso   1.00
H81    H     0.50112   0.42157   0.45979   0.00000  Uiso   1.00
H82    H     0.69294   0.98101   0.64168   0.00000  Uiso   1.00
H83    H     0.50973   0.04424   0.88500   0.00000  Uiso   1.00
O84    O     0.55672   0.54684   0.43240   0.00000  Uiso   1.00
O85    O     0.80837   0.96884   0.67102   0.00000  Uiso   1.00
O86    O     0.56801   0.05180   0.67827   0.00000  Uiso   1.00
N87    N     0.62302   0.46570   0.34623   0.00000  Uiso   1.00
N88    N     0.80235   0.05382   0.51630   0.00000  Uiso   1.00
N89    N     0.63108   0.11292   0.80887   0.00000  Uiso   1.00
N90    N     0.54077   0.42241   0.41970   0.00000  Uiso   1.00
N91    N     0.72010   0.01053   0.58978   0.00000  Uiso   1.00
N92    N     0.54883   0.06962   0.88235   0.00000  Uiso   1.00
C93    C     0.19270   0.28534   0.78270   0.00000  Uiso   1.00
C94    C     0.15339   0.22673   0.72923   0.00000  Uiso   1.00
C95    C     0.16616   0.15334   0.72519   0.00000  Uiso   1.00
C96    C     0.12448   0.10852   0.67248   0.00000  Uiso   1.00
C97    C     0.07145   0.01331   0.59654   0.00000  Uiso   1.00
C98    C     0.20282   0.34024   0.68234   0.00000  Uiso   1.00
C99    C     0.25715   0.36229   0.63888   0.00000  Uiso   1.00
C100   C     0.25707   0.41304   0.54671   0.00000  Uiso   1.00
C101   C     0.28078   0.49409   0.39803   0.00000  Uiso   1.00
C102   C     0.15561   0.32395   0.87731   0.00000  Uiso   1.00
C103   C     0.17025   0.33231   0.99778   0.00000  Uiso   1.00
C104   C     0.13044   0.36935   0.06976   0.00000  Uiso   1.00
C105   C     0.08085   0.42510   0.22379   0.00000  Uiso   1.00
C106   C     0.09598   0.33626   0.69629   0.00000  Uiso   1.00
C107   C     0.10086   0.25439   0.68229   0.00000  Uiso   1.00
C108   C     0.05915   0.20967   0.62958   0.00000  Uiso   1.00
C109   C     0.07185   0.13623   0.62546   0.00000  Uiso   1.00
C110   C     0.15029   0.36790   0.63540   0.00000  Uiso   1.00
C111   C     0.15013   0.41863   0.54328   0.00000  Uiso   1.00
C112   C     0.20444   0.44074   0.49969   0.00000  Uiso   1.00
C113   C     0.10308   0.35160   0.83037   0.00000  Uiso   1.00
C114   C     0.06324   0.38864   0.90217   0.00000  Uiso   1.00
C115   C     0.07781   0.39705   0.02274   0.00000  Uiso   1.00
H116   H     0.23361   0.26381   0.81924   0.00000  Uiso   1.00
H117   H     0.20683   0.13196   0.76151   0.00000  Uiso   1.00
H118   H     0.29780   0.34089   0.67523   0.00000  Uiso   1.00
H119   H     0.21091   0.31090   0.03407   0.00000  Uiso   1.00
H120   H     0.15398   0.99797   0.67677   0.00000  Uiso   1.00
H121   H     0.34579   0.43852   0.49487   0.00000  Uiso   1.00
H122   H     0.16259   0.37530   0.25156   0.00000  Uiso   1.00
H123   H     0.05508   0.35780   0.65975   0.00000  Uiso   1.00
H124   H     0.01849   0.23109   0.59327   0.00000  Uiso   1.00
H125   H     0.10947   0.44002   0.50699   0.00000  Uiso   1.00
H126   H     0.02259   0.41003   0.86582   0.00000  Uiso   1.00
H127   H     0.00112   0.07843   0.54021   0.00000  Uiso   1.00
H128   H     0.19294   0.51899   0.35832   0.00000  Uiso   1.00
H129   H     0.00973   0.45576   0.11500   0.00000  Uiso   1.00
O130   O     0.05672   0.95316   0.56760   0.00000  Uiso   1.00
O131   O     0.30837   0.53116   0.32898   0.00000  Uiso   1.00
O132   O     0.06801   0.44820   0.32173   0.00000  Uiso   1.00
N133   N     0.12302   0.03430   0.65377   0.00000  Uiso   1.00
N134   N     0.30235   0.44618   0.48370   0.00000  Uiso   1.00
N135   N     0.13108   0.38708   0.19113   0.00000  Uiso   1.00
N136   N     0.04077   0.07759   0.58030   0.00000  Uiso   1.00
N137   N     0.22010   0.48947   0.41022   0.00000  Uiso   1.00
N138   N     0.04883   0.43038   0.11765   0.00000  Uiso   1.00
C139   C     0.30730   0.21466   0.28270   0.00000  Uiso   1.00
C140   C     0.34661   0.27327   0.22923   0.00000  Uiso   1.00
C141   C     0.33384   0.34666   0.22519   0.00000  Uiso   1.00
C142   C     0.37552   0.39148   0.17248   0.00000  Uiso   1.00
C143   C     0.42855   0.48669   0.09654   0.00000  Uiso   1.00
C144   C     0.29718   0.15976   0.18234   0.00000  Uiso   1.00
C145   C     0.24285   0.13771   0.13888   0.00000  Uiso   1.00
C146   C     0.24293   0.08696   0.04671   0.00000  Uiso   1.00
C147   C     0.21922   0.00591   0.89803   0.00000  Uiso   1.00
C148   C     0.34439   0.17605   0.37731   0.00000  Uiso   1.00
C149   C     0.32975   0.16769   0.49778   0.00000  Uiso   1.00
C150   C     0.36956   0.13065   0.56976   0.00000  Uiso   1.00
C151   C     0.41915   0.07490   0.72379   0.00000  Uiso   1.00
C152   C     0.40402   0.16374   0.19629   0.00000  Uiso   1.00
C153   C     0.39914   0.24561   0.18229   0.00000  Uiso   1.00
C154   C     0.44085   0.29033   0.12958   0.00000  Uiso   1.00
C155   C     0.42815   0.36377   0.12546   0.00000  Uiso   1.00
C156   C     0.34971   0.13210   0.13540   0.00000  Uiso   1.00
C157   C     0.34987   0.08137   0.04328   0.00000  Uiso   1.00
C158   C     0.29556   0.05926   0.99969   0.00000  Uiso   1.00
C159   C     0.39692   0.14840   0.33037   0.00000  Uiso   1.00
C160   C     0.43676   0.11136   0.40217   0.00000  Uiso   1.00
C161   C     0.42219   0.10295   0.52274   0.00000  Uiso   1.00
H162   H     0.26639   0.23619   0.31924   0.00000  Uiso   1.00
H163   H     0.29317   0.36804   0.26151   0.00000  Uiso   1.00
H164   H     0.20220   0.15911   0.17523   0.00000  Uiso   1.00
H165   H     0.28909   0.18910   0.53407   0.00000  Uiso   1.00
H166   H     0.34602   0.50203   0.17677   0.00000  Uiso   1.00
H167   H     0.15421   0.06148   0.99487   0.00000  Uiso   1.00
H168   H     0.33741   0.12470   0.75156   0.00000  Uiso   1.00
H169   H     0.44492   0.14220   0.15975   0.00000  Uiso   1.00
H170   H     0.48151   0.26891   0.09327   0.00000  Uiso   1.00
H171   H     0.39053   0.05998   0.00699   0.00000  Uiso   1.00
H172   H     0.47741   0.08997   0.36582   0.00000  Uiso   1.00
H173   H     0.49888   0.42157   0.04021   0.00000  Uiso   1.00
H174   H     0.30706   0.98101   0.85832   0.00000  Uiso   1.00
H175   H     0.49027   0.04424   0.61500   0.00000  Uiso   1.00
O176   O     0.44328   0.54684   0.06760   0.00000  Uiso   1.00
O177   O     0.19163   0.96884   0.82898   0.00000  Uiso   1.00
O178   O     0.43199   0.05180   0.82173   0.00000  Uiso   1.00
N179   N     0.37698   0.46570   0.15377   0.00000  Uiso   1.00
N180   N     0.19765   0.05382   0.98370   0.00000  Uiso   1.00
N181   N     0.36892   0.11292   0.69113   0.00000  Uiso   1.00
N182   N     0.45923   0.42241   0.08030   0.00000  Uiso   1.00
N183   N     0.27990   0.01053   0.91022   0.00000  Uiso   1.00
N184   N     0.45117   0.06962   0.61765   0.00000  Uiso   1.00
C185   C     0.19270   0.71466   0.28270   0.00000  Uiso   1.00
C186   C     0.15339   0.77327   0.22923   0.00000  Uiso   1.00
C187   C     0.16616   0.84666   0.22519   0.00000  Uiso   1.00
C188   C     0.12448   0.89148   0.17248   0.00000  Uiso   1.00
C189   C     0.07145   0.98669   0.09654   0.00000  Uiso   1.00
C190   C     0.20282   0.65976   0.18234   0.00000  Uiso   1.00
C191   C     0.25715   0.63771   0.13888   0.00000  Uiso   1.00
C192   C     0.25707   0.58696   0.04671   0.00000  Uiso   1.00
C193   C     0.28078   0.50591   0.89803   0.00000  Uiso   1.00
C194   C     0.15561   0.67605   0.37731   0.00000  Uiso   1.00
C195   C     0.17025   0.66769   0.49778   0.00000  Uiso   1.00
C196   C     0.13044   0.63065   0.56976   0.00000  Uiso   1.00
C197   C     0.08085   0.57490   0.72379   0.00000  Uiso   1.00
C198   C     0.09598   0.66374   0.19629   0.00000  Uiso   1.00
C199   C     0.10086   0.74561   0.18229   0.00000  Uiso   1.00
C200   C     0.05915   0.79033   0.12958   0.00000  Uiso   1.00
C201   C     0.07185   0.86377   0.12546   0.00000  Uiso   1.00
C202   C     0.15029   0.63210   0.13540   0.00000  Uiso   1.00
C203   C     0.15013   0.58137   0.04328   0.00000  Uiso   1.00
C204   C     0.20444   0.55926   0.99969   0.00000  Uiso   1.00
C205   C     0.10308   0.64840   0.33037   0.00000  Uiso   1.00
C206   C     0.06324   0.61136   0.40217   0.00000  Uiso   1.00
C207   C     0.07781   0.60295   0.52274   0.00000  Uiso   1.00
H208   H     0.23361   0.73619   0.31924   0.00000  Uiso   1.00
H209   H     0.20683   0.86804   0.26151   0.00000  Uiso   1.00
H210   H     0.29780   0.65911   0.17523   0.00000  Uiso   1.00
H211   H     0.21091   0.68910   0.53407   0.00000  Uiso   1.00
H212   H     0.15398   0.00203   0.17677   0.00000  Uiso   1.00
H213   H     0.34579   0.56148   0.99487   0.00000  Uiso   1.00
H214   H     0.16259   0.62470   0.75156   0.00000  Uiso   1.00
H215   H     0.05508   0.64220   0.15975   0.00000  Uiso   1.00
H216   H     0.01849   0.76891   0.09327   0.00000  Uiso   1.00
H217   H     0.10947   0.55998   0.00699   0.00000  Uiso   1.00
H218   H     0.02259   0.58997   0.36582   0.00000  Uiso   1.00
H219   H     0.00112   0.92157   0.04021   0.00000  Uiso   1.00
H220   H     0.19294   0.48101   0.85832   0.00000  Uiso   1.00
H221   H     0.00973   0.54424   0.61500   0.00000  Uiso   1.00
O222   O     0.05672   0.04684   0.06760   0.00000  Uiso   1.00
O223   O     0.30837   0.46884   0.82898   0.00000  Uiso   1.00
O224   O     0.06801   0.55180   0.82173   0.00000  Uiso   1.00
N225   N     0.12302   0.96570   0.15377   0.00000  Uiso   1.00
N226   N     0.30235   0.55382   0.98370   0.00000  Uiso   1.00
N227   N     0.13108   0.61292   0.69113   0.00000  Uiso   1.00
N228   N     0.04077   0.92241   0.08030   0.00000  Uiso   1.00
N229   N     0.22010   0.51053   0.91022   0.00000  Uiso   1.00
N230   N     0.04883   0.56962   0.61765   0.00000  Uiso   1.00
C231   C     0.30730   0.78534   0.78270   0.00000  Uiso   1.00
C232   C     0.34661   0.72673   0.72923   0.00000  Uiso   1.00
C233   C     0.33384   0.65334   0.72519   0.00000  Uiso   1.00
C234   C     0.37552   0.60852   0.67248   0.00000  Uiso   1.00
C235   C     0.42855   0.51331   0.59654   0.00000  Uiso   1.00
C236   C     0.29718   0.84024   0.68234   0.00000  Uiso   1.00
C237   C     0.24285   0.86229   0.63888   0.00000  Uiso   1.00
C238   C     0.24293   0.91304   0.54671   0.00000  Uiso   1.00
C239   C     0.21922   0.99409   0.39803   0.00000  Uiso   1.00
C240   C     0.34439   0.82395   0.87731   0.00000  Uiso   1.00
C241   C     0.32975   0.83231   0.99778   0.00000  Uiso   1.00
C242   C     0.36956   0.86935   0.06976   0.00000  Uiso   1.00
C243   C     0.41915   0.92510   0.22379   0.00000  Uiso   1.00
C244   C     0.40402   0.83626   0.69629   0.00000  Uiso   1.00
C245   C     0.39914   0.75439   0.68229   0.00000  Uiso   1.00
C246   C     0.44085   0.70967   0.62958   0.00000  Uiso   1.00
C247   C     0.42815   0.63623   0.62546   0.00000  Uiso   1.00
C248   C     0.34971   0.86790   0.63540   0.00000  Uiso   1.00
C249   C     0.34987   0.91863   0.54328   0.00000  Uiso   1.00
C250   C     0.29556   0.94074   0.49969   0.00000  Uiso   1.00
C251   C     0.39692   0.85160   0.83037   0.00000  Uiso   1.00
C252   C     0.43676   0.88864   0.90217   0.00000  Uiso   1.00
C253   C     0.42219   0.89705   0.02274   0.00000  Uiso   1.00
H254   H     0.26639   0.76381   0.81924   0.00000  Uiso   1.00
H255   H     0.29317   0.63196   0.76151   0.00000  Uiso   1.00
H256   H     0.20220   0.84089   0.67523   0.00000  Uiso   1.00
H257   H     0.28909   0.81090   0.03407   0.00000  Uiso   1.00
H258   H     0.34602   0.49797   0.67677   0.00000  Uiso   1.00
H259   H     0.15421   0.93852   0.49487   0.00000  Uiso   1.00
H260   H     0.33741   0.87530   0.25156   0.00000  Uiso   1.00
H261   H     0.44492   0.85780   0.65975   0.00000  Uiso   1.00
H262   H     0.48151   0.73109   0.59327   0.00000  Uiso   1.00
H263   H     0.39053   0.94002   0.50699   0.00000  Uiso   1.00
H264   H     0.47741   0.91003   0.86582   0.00000  Uiso   1.00
H265   H     0.49888   0.57843   0.54021   0.00000  Uiso   1.00
H266   H     0.30706   0.01899   0.35832   0.00000  Uiso   1.00
H267   H     0.49027   0.95576   0.11500   0.00000  Uiso   1.00
O268   O     0.44328   0.45316   0.56760   0.00000  Uiso   1.00
O269   O     0.19163   0.03116   0.32898   0.00000  Uiso   1.00
O270   O     0.43199   0.94820   0.32173   0.00000  Uiso   1.00
N271   N     0.37698   0.53430   0.65377   0.00000  Uiso   1.00
N272   N     0.19765   0.94618   0.48370   0.00000  Uiso   1.00
N273   N     0.36892   0.88708   0.19113   0.00000  Uiso   1.00
N274   N     0.45923   0.57759   0.58030   0.00000  Uiso   1.00
N275   N     0.27990   0.98947   0.41022   0.00000  Uiso   1.00
N276   N     0.45117   0.93038   0.11765   0.00000  Uiso   1.00
C277   C     0.80730   0.71466   0.21730   0.00000  Uiso   1.00
C278   C     0.84661   0.77327   0.27077   0.00000  Uiso   1.00
C279   C     0.83384   0.84666   0.27481   0.00000  Uiso   1.00
C280   C     0.87552   0.89148   0.32752   0.00000  Uiso   1.00
C281   C     0.92855   0.98669   0.40346   0.00000  Uiso   1.00
C282   C     0.79718   0.65976   0.31766   0.00000  Uiso   1.00
C283   C     0.74285   0.63771   0.36112   0.00000  Uiso   1.00
C284   C     0.74293   0.58696   0.45329   0.00000  Uiso   1.00
C285   C     0.71922   0.50591   0.60197   0.00000  Uiso   1.00
C286   C     0.84439   0.67605   0.12269   0.00000  Uiso   1.00
C287   C     0.82975   0.66769   0.00222   0.00000  Uiso   1.00
C288   C     0.86956   0.63065   0.93024   0.00000  Uiso   1.00
C289   C     0.91915   0.57490   0.77621   0.00000  Uiso   1.00
C290   C     0.90402   0.66374   0.30371   0.00000  Uiso   1.00
C291   C     0.89914   0.74561   0.31771   0.00000  Uiso   1.00
C292   C     0.94085   0.79033   0.37042   0.00000  Uiso   1.00
C293   C     0.92815   0.86377   0.37454   0.00000  Uiso   1.00
C294   C     0.84971   0.63210   0.36460   0.00000  Uiso   1.00
C295   C     0.84987   0.58137   0.45672   0.00000  Uiso   1.00
C296   C     0.79556   0.55926   0.50031   0.00000  Uiso   1.00
C297   C     0.89692   0.64840   0.16963   0.00000  Uiso   1.00
C298   C     0.93676   0.61136   0.09783   0.00000  Uiso   1.00
C299   C     0.92219   0.60295   0.97726   0.00000  Uiso   1.00
H300   H     0.76639   0.73619   0.18076   0.00000  Uiso   1.00
H301   H     0.79317   0.86804   0.23849   0.00000  Uiso   1.00
H302   H     0.70220   0.65911   0.32477   0.00000  Uiso   1.00
H303   H     0.78909   0.68910   0.96593   0.00000  Uiso   1.00
H304   H     0.84602   0.00203   0.32323   0.00000  Uiso   1.00
H305   H     0.65421   0.56148   0.50513   0.00000  Uiso   1.00
H306   H     0.83741   0.62470   0.74844   0.00000  Uiso   1.00
H307   H     0.94492   0.64220   0.34025   0.00000  Uiso   1.00
H308   H     0.98151   0.76891   0.40673   0.00000  Uiso   1.00
H309   H     0.89053   0.55998   0.49301   0.00000  Uiso   1.00
H310   H     0.97741   0.58997   0.13418   0.00000  Uiso   1.00
H311   H     0.99888   0.92157   0.45979   0.00000  Uiso   1.00
H312   H     0.80706   0.48101   0.64168   0.00000  Uiso   1.00
H313   H     0.99027   0.54424   0.88500   0.00000  Uiso   1.00
O314   O     0.94328   0.04684   0.43240   0.00000  Uiso   1.00
O315   O     0.69163   0.46884   0.67102   0.00000  Uiso   1.00
O316   O     0.93199   0.55180   0.67827   0.00000  Uiso   1.00
N317   N     0.87698   0.96570   0.34623   0.00000  Uiso   1.00
N318   N     0.69765   0.55382   0.51630   0.00000  Uiso   1.00
N319   N     0.86892   0.61292   0.80887   0.00000  Uiso   1.00
N320   N     0.95923   0.92241   0.41970   0.00000  Uiso   1.00
N321   N     0.77990   0.51053   0.58978   0.00000  Uiso   1.00
N322   N     0.95117   0.56962   0.88235   0.00000  Uiso   1.00
C323   C     0.69270   0.78534   0.71730   0.00000  Uiso   1.00
C324   C     0.65339   0.72673   0.77077   0.00000  Uiso   1.00
C325   C     0.66616   0.65334   0.77481   0.00000  Uiso   1.00
C326   C     0.62448   0.60852   0.82752   0.00000  Uiso   1.00
C327   C     0.57145   0.51331   0.90346   0.00000  Uiso   1.00
C328   C     0.70282   0.84024   0.81766   0.00000  Uiso   1.00
C329   C     0.75715   0.86229   0.86112   0.00000  Uiso   1.00
C330   C     0.75707   0.91304   0.95329   0.00000  Uiso   1.00
C331   C     0.78078   0.99409   0.10197   0.00000  Uiso   1.00
C332   C     0.65561   0.82395   0.62269   0.00000  Uiso   1.00
C333   C     0.67025   0.83231   0.50222   0.00000  Uiso   1.00
C334   C     0.63044   0.86935   0.43024   0.00000  Uiso   1.00
C335   C     0.58085   0.92510   0.27621   0.00000  Uiso   1.00
C336   C     0.59598   0.83626   0.80371   0.00000  Uiso   1.00
C337   C     0.60086   0.75439   0.81771   0.00000  Uiso   1.00
C338   C     0.55915   0.70967   0.87042   0.00000  Uiso   1.00
C339   C     0.57185   0.63623   0.87454   0.00000  Uiso   1.00
C340   C     0.65029   0.86790   0.86460   0.00000  Uiso   1.00
C341   C     0.65013   0.91863   0.95672   0.00000  Uiso   1.00
C342   C     0.70444   0.94074   0.00031   0.00000  Uiso   1.00
C343   C     0.60308   0.85160   0.66963   0.00000  Uiso   1.00
C344   C     0.56324   0.88864   0.59783   0.00000  Uiso   1.00
C345   C     0.57781   0.89705   0.47726   0.00000  Uiso   1.00
H346   H     0.73361   0.76381   0.68076   0.00000  Uiso   1.00
H347   H     0.70683   0.63196   0.73849   0.00000  Uiso   1.00
H348   H     0.79780   0.84089   0.82477   0.00000  Uiso   1.00
H349   H     0.71091   0.81090   0.46593   0.00000  Uiso   1.00
H350   H     0.65398   0.49797   0.82323   0.00000  Uiso   1.00
H351   H     0.84579   0.93852   0.00513   0.00000  Uiso   1.00
H352   H     0.66259   0.87530   0.24844   0.00000  Uiso   1.00
H353   H     0.55508   0.85780   0.84025   0.00000  Uiso   1.00
H354   H     0.51849   0.73109   0.90673   0.00000  Uiso   1.00
H355   H     0.60947   0.94002   0.99301   0.00000  Uiso   1.00
H356   H     0.52259   0.91003   0.63418   0.00000  Uiso   1.00
H357   H     0.50112   0.57843   0.95979   0.00000  Uiso   1.00
H358   H     0.69294   0.01899   0.14168   0.00000  Uiso   1.00
H359   H     0.50973   0.95576   0.38500   0.00000  Uiso   1.00
O360   O     0.55672   0.45316   0.93240   0.00000  Uiso   1.00
O361   O     0.80837   0.03116   0.17102   0.00000  Uiso   1.00
O362   O     0.56801   0.94820   0.17827   0.00000  Uiso   1.00
N363   N     0.62302   0.53430   0.84623   0.00000  Uiso   1.00
N364   N     0.80235   0.94618   0.01630   0.00000  Uiso   1.00
N365   N     0.63108   0.88708   0.30887   0.00000  Uiso   1.00
N366   N     0.54077   0.57759   0.91970   0.00000  Uiso   1.00
N367   N     0.72010   0.98947   0.08978   0.00000  Uiso   1.00
N368   N     0.54883   0.93038   0.38235   0.00000  Uiso   1.00
