data_job_01572
_audit_creation_date              2018-12-19
_audit_creation_method            'Materials Studio'
_symmetry_space_group_name_H-M    'P1'
_symmetry_Int_Tables_number       1
_symmetry_cell_setting            triclinic
loop_
_symmetry_equiv_pos_as_xyz
  x,y,z
_cell_length_a                    27.7491
_cell_length_b                    11.6825
_cell_length_c                    14.9715
_cell_angle_alpha                 90.0000
_cell_angle_beta                  97.0070
_cell_angle_gamma                 90.0000
loop_
_atom_site_label
_atom_site_type_symbol
_atom_site_fract_x
_atom_site_fract_y
_atom_site_fract_z
_atom_site_U_iso_or_equiv
_atom_site_adp_type
_atom_site_occupancy
C1     C     0.13532   0.49619   0.31183   0.00000  Uiso   1.00
C2     C     0.18600   0.50557   0.36365   0.00000  Uiso   1.00
C3     C     0.22709   0.54560   0.32930   0.00000  Uiso   1.00
C4     C     0.27004   0.54745   0.38752   0.00000  Uiso   1.00
C5     C     0.34848   0.56757   0.45438   0.00000  Uiso   1.00
C6     C     0.12021   0.37139   0.31930   0.00000  Uiso   1.00
C7     C     0.10597   0.29861   0.24766   0.00000  Uiso   1.00
C8     C     0.09354   0.18751   0.26855   0.00000  Uiso   1.00
C9     C     0.06979   0.99934   0.26655   0.00000  Uiso   1.00
C10    C     0.10197   0.56508   0.36527   0.00000  Uiso   1.00
C11    C     0.07237   0.65513   0.33228   0.00000  Uiso   1.00
C12    C     0.04457   0.70709   0.39188   0.00000  Uiso   1.00
C13    C     0.99249   0.81964   0.46125   0.00000  Uiso   1.00
C14    C     0.13855   0.42831   0.47632   0.00000  Uiso   1.00
C15    C     0.18776   0.46870   0.45299   0.00000  Uiso   1.00
C16    C     0.23066   0.47050   0.51129   0.00000  Uiso   1.00
C17    C     0.27180   0.51052   0.47703   0.00000  Uiso   1.00
C18    C     0.12196   0.33452   0.40864   0.00000  Uiso   1.00
C19    C     0.10954   0.22351   0.42965   0.00000  Uiso   1.00
C20    C     0.09529   0.15057   0.35806   0.00000  Uiso   1.00
C21    C     0.10372   0.52821   0.45462   0.00000  Uiso   1.00
C22    C     0.07595   0.58003   0.51427   0.00000  Uiso   1.00
C23    C     0.04632   0.67015   0.48138   0.00000  Uiso   1.00
H24    H     0.13396   0.52489   0.24228   0.00000  Uiso   1.00
H25    H     0.22572   0.57411   0.26015   0.00000  Uiso   1.00
H26    H     0.10462   0.32717   0.17853   0.00000  Uiso   1.00
H27    H     0.07103   0.68364   0.26314   0.00000  Uiso   1.00
H28    H     0.32823   0.61239   0.31936   0.00000  Uiso   1.00
H29    H     0.07287   0.09170   0.14725   0.00000  Uiso   1.00
H30    H     0.00203   0.84339   0.32567   0.00000  Uiso   1.00
H31    H     0.13991   0.39960   0.54588   0.00000  Uiso   1.00
H32    H     0.23200   0.44196   0.58042   0.00000  Uiso   1.00
H33    H     0.11090   0.19501   0.49879   0.00000  Uiso   1.00
H34    H     0.07731   0.55148   0.58341   0.00000  Uiso   1.00
H35    H     0.33333   0.50512   0.57930   0.00000  Uiso   1.00
H36    H     0.07796   0.98443   0.40719   0.00000  Uiso   1.00
H37    H     0.00713   0.73612   0.58561   0.00000  Uiso   1.00
O38    O     0.39125   0.58884   0.46657   0.00000  Uiso   1.00
O39    O     0.05622   0.90573   0.24076   0.00000  Uiso   1.00
O40    O     0.96329   0.89192   0.47484   0.00000  Uiso   1.00
N41    N     0.31679   0.58135   0.37581   0.00000  Uiso   1.00
N42    N     0.07805   0.09453   0.21489   0.00000  Uiso   1.00
N43    N     0.01182   0.79728   0.38169   0.00000  Uiso   1.00
N44    N     0.31953   0.52363   0.51568   0.00000  Uiso   1.00
N45    N     0.08079   0.03682   0.35476   0.00000  Uiso   1.00
N46    N     0.01456   0.73956   0.52156   0.00000  Uiso   1.00
C47    C     0.63532   0.99619   0.31183   0.00000  Uiso   1.00
C48    C     0.68600   0.00557   0.36365   0.00000  Uiso   1.00
C49    C     0.72709   0.04560   0.32930   0.00000  Uiso   1.00
C50    C     0.77004   0.04745   0.38752   0.00000  Uiso   1.00
C51    C     0.84848   0.06757   0.45438   0.00000  Uiso   1.00
C52    C     0.62021   0.87139   0.31930   0.00000  Uiso   1.00
C53    C     0.60597   0.79861   0.24766   0.00000  Uiso   1.00
C54    C     0.59354   0.68751   0.26855   0.00000  Uiso   1.00
C55    C     0.56979   0.49934   0.26655   0.00000  Uiso   1.00
C56    C     0.60197   0.06508   0.36527   0.00000  Uiso   1.00
C57    C     0.57237   0.15513   0.33228   0.00000  Uiso   1.00
C58    C     0.54457   0.20709   0.39188   0.00000  Uiso   1.00
C59    C     0.49249   0.31964   0.46125   0.00000  Uiso   1.00
C60    C     0.63855   0.92831   0.47632   0.00000  Uiso   1.00
C61    C     0.68776   0.96870   0.45299   0.00000  Uiso   1.00
C62    C     0.73066   0.97050   0.51129   0.00000  Uiso   1.00
C63    C     0.77180   0.01052   0.47703   0.00000  Uiso   1.00
C64    C     0.62196   0.83452   0.40864   0.00000  Uiso   1.00
C65    C     0.60954   0.72351   0.42965   0.00000  Uiso   1.00
C66    C     0.59529   0.65057   0.35806   0.00000  Uiso   1.00
C67    C     0.60372   0.02821   0.45462   0.00000  Uiso   1.00
C68    C     0.57595   0.08003   0.51427   0.00000  Uiso   1.00
C69    C     0.54632   0.17015   0.48138   0.00000  Uiso   1.00
H70    H     0.63396   0.02489   0.24228   0.00000  Uiso   1.00
H71    H     0.72572   0.07411   0.26015   0.00000  Uiso   1.00
H72    H     0.60462   0.82717   0.17853   0.00000  Uiso   1.00
H73    H     0.57103   0.18364   0.26314   0.00000  Uiso   1.00
H74    H     0.82823   0.11239   0.31936   0.00000  Uiso   1.00
H75    H     0.57287   0.59170   0.14725   0.00000  Uiso   1.00
H76    H     0.50203   0.34339   0.32567   0.00000  Uiso   1.00
H77    H     0.63991   0.89960   0.54588   0.00000  Uiso   1.00
H78    H     0.73200   0.94196   0.58042   0.00000  Uiso   1.00
H79    H     0.61090   0.69501   0.49879   0.00000  Uiso   1.00
H80    H     0.57731   0.05148   0.58341   0.00000  Uiso   1.00
H81    H     0.83333   0.00512   0.57930   0.00000  Uiso   1.00
H82    H     0.57796   0.48443   0.40719   0.00000  Uiso   1.00
H83    H     0.50713   0.23612   0.58561   0.00000  Uiso   1.00
O84    O     0.89125   0.08884   0.46657   0.00000  Uiso   1.00
O85    O     0.55622   0.40573   0.24076   0.00000  Uiso   1.00
O86    O     0.46329   0.39192   0.47484   0.00000  Uiso   1.00
N87    N     0.81679   0.08135   0.37581   0.00000  Uiso   1.00
N88    N     0.57805   0.59453   0.21489   0.00000  Uiso   1.00
N89    N     0.51182   0.29728   0.38169   0.00000  Uiso   1.00
N90    N     0.81953   0.02363   0.51568   0.00000  Uiso   1.00
N91    N     0.58079   0.53682   0.35476   0.00000  Uiso   1.00
N92    N     0.51456   0.23956   0.52156   0.00000  Uiso   1.00
C93    C     0.86468   0.49619   0.18817   0.00000  Uiso   1.00
C94    C     0.81400   0.50557   0.13635   0.00000  Uiso   1.00
C95    C     0.77291   0.54560   0.17070   0.00000  Uiso   1.00
C96    C     0.72996   0.54745   0.11248   0.00000  Uiso   1.00
C97    C     0.65152   0.56757   0.04562   0.00000  Uiso   1.00
C98    C     0.87979   0.37139   0.18070   0.00000  Uiso   1.00
C99    C     0.89403   0.29861   0.25234   0.00000  Uiso   1.00
C100   C     0.90646   0.18751   0.23145   0.00000  Uiso   1.00
C101   C     0.93021   0.99934   0.23345   0.00000  Uiso   1.00
C102   C     0.89803   0.56508   0.13473   0.00000  Uiso   1.00
C103   C     0.92763   0.65513   0.16772   0.00000  Uiso   1.00
C104   C     0.95543   0.70709   0.10812   0.00000  Uiso   1.00
C105   C     0.00751   0.81964   0.03875   0.00000  Uiso   1.00
C106   C     0.86145   0.42831   0.02368   0.00000  Uiso   1.00
C107   C     0.81224   0.46870   0.04701   0.00000  Uiso   1.00
C108   C     0.76934   0.47050   0.98871   0.00000  Uiso   1.00
C109   C     0.72820   0.51052   0.02297   0.00000  Uiso   1.00
C110   C     0.87804   0.33452   0.09136   0.00000  Uiso   1.00
C111   C     0.89046   0.22351   0.07035   0.00000  Uiso   1.00
C112   C     0.90471   0.15057   0.14194   0.00000  Uiso   1.00
C113   C     0.89628   0.52821   0.04538   0.00000  Uiso   1.00
C114   C     0.92405   0.58003   0.98573   0.00000  Uiso   1.00
C115   C     0.95368   0.67015   0.01862   0.00000  Uiso   1.00
H116   H     0.86604   0.52489   0.25772   0.00000  Uiso   1.00
H117   H     0.77428   0.57411   0.23985   0.00000  Uiso   1.00
H118   H     0.89538   0.32717   0.32147   0.00000  Uiso   1.00
H119   H     0.92897   0.68364   0.23686   0.00000  Uiso   1.00
H120   H     0.67177   0.61239   0.18064   0.00000  Uiso   1.00
H121   H     0.92713   0.09170   0.35275   0.00000  Uiso   1.00
H122   H     0.99797   0.84339   0.17433   0.00000  Uiso   1.00
H123   H     0.86009   0.39960   0.95412   0.00000  Uiso   1.00
H124   H     0.76800   0.44196   0.91958   0.00000  Uiso   1.00
H125   H     0.88910   0.19501   0.00121   0.00000  Uiso   1.00
H126   H     0.92269   0.55148   0.91659   0.00000  Uiso   1.00
H127   H     0.66667   0.50512   0.92070   0.00000  Uiso   1.00
H128   H     0.92204   0.98443   0.09281   0.00000  Uiso   1.00
H129   H     0.99287   0.73612   0.91439   0.00000  Uiso   1.00
O130   O     0.60875   0.58884   0.03343   0.00000  Uiso   1.00
O131   O     0.94378   0.90573   0.25924   0.00000  Uiso   1.00
O132   O     0.03671   0.89192   0.02516   0.00000  Uiso   1.00
N133   N     0.68321   0.58135   0.12419   0.00000  Uiso   1.00
N134   N     0.92195   0.09453   0.28511   0.00000  Uiso   1.00
N135   N     0.98818   0.79728   0.11831   0.00000  Uiso   1.00
N136   N     0.68047   0.52363   0.98432   0.00000  Uiso   1.00
N137   N     0.91921   0.03682   0.14524   0.00000  Uiso   1.00
N138   N     0.98544   0.73956   0.97844   0.00000  Uiso   1.00
C139   C     0.36468   0.99619   0.18817   0.00000  Uiso   1.00
C140   C     0.31400   0.00557   0.13635   0.00000  Uiso   1.00
C141   C     0.27291   0.04560   0.17070   0.00000  Uiso   1.00
C142   C     0.22996   0.04745   0.11248   0.00000  Uiso   1.00
C143   C     0.15152   0.06757   0.04562   0.00000  Uiso   1.00
C144   C     0.37979   0.87139   0.18070   0.00000  Uiso   1.00
C145   C     0.39403   0.79861   0.25234   0.00000  Uiso   1.00
C146   C     0.40646   0.68751   0.23145   0.00000  Uiso   1.00
C147   C     0.43021   0.49934   0.23345   0.00000  Uiso   1.00
C148   C     0.39803   0.06508   0.13473   0.00000  Uiso   1.00
C149   C     0.42763   0.15513   0.16772   0.00000  Uiso   1.00
C150   C     0.45543   0.20709   0.10812   0.00000  Uiso   1.00
C151   C     0.50751   0.31964   0.03875   0.00000  Uiso   1.00
C152   C     0.36145   0.92831   0.02368   0.00000  Uiso   1.00
C153   C     0.31224   0.96870   0.04701   0.00000  Uiso   1.00
C154   C     0.26934   0.97050   0.98871   0.00000  Uiso   1.00
C155   C     0.22820   0.01052   0.02297   0.00000  Uiso   1.00
C156   C     0.37804   0.83452   0.09136   0.00000  Uiso   1.00
C157   C     0.39046   0.72351   0.07035   0.00000  Uiso   1.00
C158   C     0.40471   0.65057   0.14194   0.00000  Uiso   1.00
C159   C     0.39628   0.02821   0.04538   0.00000  Uiso   1.00
C160   C     0.42405   0.08003   0.98573   0.00000  Uiso   1.00
C161   C     0.45368   0.17015   0.01862   0.00000  Uiso   1.00
H162   H     0.36604   0.02489   0.25772   0.00000  Uiso   1.00
H163   H     0.27428   0.07411   0.23985   0.00000  Uiso   1.00
H164   H     0.39538   0.82717   0.32147   0.00000  Uiso   1.00
H165   H     0.42897   0.18364   0.23686   0.00000  Uiso   1.00
H166   H     0.17177   0.11239   0.18064   0.00000  Uiso   1.00
H167   H     0.42713   0.59170   0.35275   0.00000  Uiso   1.00
H168   H     0.49797   0.34339   0.17433   0.00000  Uiso   1.00
H169   H     0.36009   0.89960   0.95412   0.00000  Uiso   1.00
H170   H     0.26800   0.94196   0.91958   0.00000  Uiso   1.00
H171   H     0.38910   0.69501   0.00121   0.00000  Uiso   1.00
H172   H     0.42269   0.05148   0.91659   0.00000  Uiso   1.00
H173   H     0.16667   0.00512   0.92070   0.00000  Uiso   1.00
H174   H     0.42204   0.48443   0.09281   0.00000  Uiso   1.00
H175   H     0.49287   0.23612   0.91439   0.00000  Uiso   1.00
O176   O     0.10875   0.08884   0.03343   0.00000  Uiso   1.00
O177   O     0.44378   0.40573   0.25924   0.00000  Uiso   1.00
O178   O     0.53671   0.39192   0.02516   0.00000  Uiso   1.00
N179   N     0.18321   0.08135   0.12419   0.00000  Uiso   1.00
N180   N     0.42195   0.59453   0.28511   0.00000  Uiso   1.00
N181   N     0.48818   0.29728   0.11831   0.00000  Uiso   1.00
N182   N     0.18047   0.02363   0.98432   0.00000  Uiso   1.00
N183   N     0.41921   0.53682   0.14524   0.00000  Uiso   1.00
N184   N     0.48544   0.23956   0.97844   0.00000  Uiso   1.00
C185   C     0.86468   0.50381   0.68817   0.00000  Uiso   1.00
C186   C     0.81400   0.49443   0.63635   0.00000  Uiso   1.00
C187   C     0.77291   0.45440   0.67070   0.00000  Uiso   1.00
C188   C     0.72996   0.45255   0.61248   0.00000  Uiso   1.00
C189   C     0.65152   0.43243   0.54562   0.00000  Uiso   1.00
C190   C     0.87979   0.62861   0.68070   0.00000  Uiso   1.00
C191   C     0.89403   0.70139   0.75234   0.00000  Uiso   1.00
C192   C     0.90646   0.81249   0.73145   0.00000  Uiso   1.00
C193   C     0.93021   0.00066   0.73345   0.00000  Uiso   1.00
C194   C     0.89803   0.43492   0.63473   0.00000  Uiso   1.00
C195   C     0.92763   0.34487   0.66772   0.00000  Uiso   1.00
C196   C     0.95543   0.29291   0.60812   0.00000  Uiso   1.00
C197   C     0.00751   0.18036   0.53875   0.00000  Uiso   1.00
C198   C     0.86145   0.57169   0.52368   0.00000  Uiso   1.00
C199   C     0.81224   0.53130   0.54701   0.00000  Uiso   1.00
C200   C     0.76934   0.52950   0.48871   0.00000  Uiso   1.00
C201   C     0.72820   0.48948   0.52297   0.00000  Uiso   1.00
C202   C     0.87804   0.66548   0.59136   0.00000  Uiso   1.00
C203   C     0.89046   0.77649   0.57035   0.00000  Uiso   1.00
C204   C     0.90471   0.84943   0.64194   0.00000  Uiso   1.00
C205   C     0.89628   0.47179   0.54538   0.00000  Uiso   1.00
C206   C     0.92405   0.41997   0.48573   0.00000  Uiso   1.00
C207   C     0.95368   0.32985   0.51862   0.00000  Uiso   1.00
H208   H     0.86604   0.47511   0.75772   0.00000  Uiso   1.00
H209   H     0.77428   0.42589   0.73985   0.00000  Uiso   1.00
H210   H     0.89538   0.67283   0.82147   0.00000  Uiso   1.00
H211   H     0.92897   0.31636   0.73686   0.00000  Uiso   1.00
H212   H     0.67177   0.38761   0.68064   0.00000  Uiso   1.00
H213   H     0.92713   0.90830   0.85275   0.00000  Uiso   1.00
H214   H     0.99797   0.15661   0.67433   0.00000  Uiso   1.00
H215   H     0.86009   0.60040   0.45412   0.00000  Uiso   1.00
H216   H     0.76800   0.55804   0.41958   0.00000  Uiso   1.00
H217   H     0.88910   0.80499   0.50121   0.00000  Uiso   1.00
H218   H     0.92269   0.44852   0.41659   0.00000  Uiso   1.00
H219   H     0.66667   0.49488   0.42070   0.00000  Uiso   1.00
H220   H     0.92204   0.01557   0.59281   0.00000  Uiso   1.00
H221   H     0.99287   0.26388   0.41439   0.00000  Uiso   1.00
O222   O     0.60875   0.41116   0.53343   0.00000  Uiso   1.00
O223   O     0.94378   0.09427   0.75924   0.00000  Uiso   1.00
O224   O     0.03671   0.10808   0.52516   0.00000  Uiso   1.00
N225   N     0.68321   0.41865   0.62419   0.00000  Uiso   1.00
N226   N     0.92195   0.90547   0.78511   0.00000  Uiso   1.00
N227   N     0.98818   0.20272   0.61831   0.00000  Uiso   1.00
N228   N     0.68047   0.47637   0.48432   0.00000  Uiso   1.00
N229   N     0.91921   0.96318   0.64524   0.00000  Uiso   1.00
N230   N     0.98544   0.26044   0.47844   0.00000  Uiso   1.00
C231   C     0.36468   0.00381   0.68817   0.00000  Uiso   1.00
C232   C     0.31400   0.99443   0.63635   0.00000  Uiso   1.00
C233   C     0.27291   0.95440   0.67070   0.00000  Uiso   1.00
C234   C     0.22996   0.95255   0.61248   0.00000  Uiso   1.00
C235   C     0.15152   0.93243   0.54562   0.00000  Uiso   1.00
C236   C     0.37979   0.12861   0.68070   0.00000  Uiso   1.00
C237   C     0.39403   0.20139   0.75234   0.00000  Uiso   1.00
C238   C     0.40646   0.31249   0.73145   0.00000  Uiso   1.00
C239   C     0.43021   0.50066   0.73345   0.00000  Uiso   1.00
C240   C     0.39803   0.93492   0.63473   0.00000  Uiso   1.00
C241   C     0.42763   0.84487   0.66772   0.00000  Uiso   1.00
C242   C     0.45543   0.79291   0.60812   0.00000  Uiso   1.00
C243   C     0.50751   0.68036   0.53875   0.00000  Uiso   1.00
C244   C     0.36145   0.07169   0.52368   0.00000  Uiso   1.00
C245   C     0.31224   0.03130   0.54701   0.00000  Uiso   1.00
C246   C     0.26934   0.02950   0.48871   0.00000  Uiso   1.00
C247   C     0.22820   0.98948   0.52297   0.00000  Uiso   1.00
C248   C     0.37804   0.16548   0.59136   0.00000  Uiso   1.00
C249   C     0.39046   0.27649   0.57035   0.00000  Uiso   1.00
C250   C     0.40471   0.34943   0.64194   0.00000  Uiso   1.00
C251   C     0.39628   0.97179   0.54538   0.00000  Uiso   1.00
C252   C     0.42405   0.91997   0.48573   0.00000  Uiso   1.00
C253   C     0.45368   0.82985   0.51862   0.00000  Uiso   1.00
H254   H     0.36604   0.97511   0.75772   0.00000  Uiso   1.00
H255   H     0.27428   0.92589   0.73985   0.00000  Uiso   1.00
H256   H     0.39538   0.17283   0.82147   0.00000  Uiso   1.00
H257   H     0.42897   0.81636   0.73686   0.00000  Uiso   1.00
H258   H     0.17177   0.88761   0.68064   0.00000  Uiso   1.00
H259   H     0.42713   0.40830   0.85275   0.00000  Uiso   1.00
H260   H     0.49797   0.65661   0.67433   0.00000  Uiso   1.00
H261   H     0.36009   0.10040   0.45412   0.00000  Uiso   1.00
H262   H     0.26800   0.05804   0.41958   0.00000  Uiso   1.00
H263   H     0.38910   0.30499   0.50121   0.00000  Uiso   1.00
H264   H     0.42269   0.94852   0.41659   0.00000  Uiso   1.00
H265   H     0.16667   0.99488   0.42070   0.00000  Uiso   1.00
H266   H     0.42204   0.51557   0.59281   0.00000  Uiso   1.00
H267   H     0.49287   0.76388   0.41439   0.00000  Uiso   1.00
O268   O     0.10875   0.91116   0.53343   0.00000  Uiso   1.00
O269   O     0.44378   0.59427   0.75924   0.00000  Uiso   1.00
O270   O     0.53671   0.60808   0.52516   0.00000  Uiso   1.00
N271   N     0.18321   0.91865   0.62419   0.00000  Uiso   1.00
N272   N     0.42195   0.40547   0.78511   0.00000  Uiso   1.00
N273   N     0.48818   0.70272   0.61831   0.00000  Uiso   1.00
N274   N     0.18047   0.97637   0.48432   0.00000  Uiso   1.00
N275   N     0.41921   0.46318   0.64524   0.00000  Uiso   1.00
N276   N     0.48544   0.76044   0.47844   0.00000  Uiso   1.00
C277   C     0.13532   0.50381   0.81183   0.00000  Uiso   1.00
C278   C     0.18600   0.49443   0.86365   0.00000  Uiso   1.00
C279   C     0.22709   0.45440   0.82930   0.00000  Uiso   1.00
C280   C     0.27004   0.45255   0.88752   0.00000  Uiso   1.00
C281   C     0.34848   0.43243   0.95438   0.00000  Uiso   1.00
C282   C     0.12021   0.62861   0.81930   0.00000  Uiso   1.00
C283   C     0.10597   0.70139   0.74766   0.00000  Uiso   1.00
C284   C     0.09354   0.81249   0.76855   0.00000  Uiso   1.00
C285   C     0.06979   0.00066   0.76655   0.00000  Uiso   1.00
C286   C     0.10197   0.43492   0.86527   0.00000  Uiso   1.00
C287   C     0.07237   0.34487   0.83228   0.00000  Uiso   1.00
C288   C     0.04457   0.29291   0.89188   0.00000  Uiso   1.00
C289   C     0.99249   0.18036   0.96125   0.00000  Uiso   1.00
C290   C     0.13855   0.57169   0.97632   0.00000  Uiso   1.00
C291   C     0.18776   0.53130   0.95299   0.00000  Uiso   1.00
C292   C     0.23066   0.52950   0.01129   0.00000  Uiso   1.00
C293   C     0.27180   0.48948   0.97703   0.00000  Uiso   1.00
C294   C     0.12196   0.66548   0.90864   0.00000  Uiso   1.00
C295   C     0.10954   0.77649   0.92965   0.00000  Uiso   1.00
C296   C     0.09529   0.84943   0.85806   0.00000  Uiso   1.00
C297   C     0.10372   0.47179   0.95462   0.00000  Uiso   1.00
C298   C     0.07595   0.41997   0.01427   0.00000  Uiso   1.00
C299   C     0.04632   0.32985   0.98138   0.00000  Uiso   1.00
H300   H     0.13396   0.47511   0.74228   0.00000  Uiso   1.00
H301   H     0.22572   0.42589   0.76015   0.00000  Uiso   1.00
H302   H     0.10462   0.67283   0.67853   0.00000  Uiso   1.00
H303   H     0.07103   0.31636   0.76314   0.00000  Uiso   1.00
H304   H     0.32823   0.38761   0.81936   0.00000  Uiso   1.00
H305   H     0.07287   0.90830   0.64725   0.00000  Uiso   1.00
H306   H     0.00203   0.15661   0.82567   0.00000  Uiso   1.00
H307   H     0.13991   0.60040   0.04588   0.00000  Uiso   1.00
H308   H     0.23200   0.55804   0.08042   0.00000  Uiso   1.00
H309   H     0.11090   0.80499   0.99879   0.00000  Uiso   1.00
H310   H     0.07731   0.44852   0.08341   0.00000  Uiso   1.00
H311   H     0.33333   0.49488   0.07930   0.00000  Uiso   1.00
H312   H     0.07796   0.01557   0.90719   0.00000  Uiso   1.00
H313   H     0.00713   0.26388   0.08561   0.00000  Uiso   1.00
O314   O     0.39125   0.41116   0.96657   0.00000  Uiso   1.00
O315   O     0.05622   0.09427   0.74076   0.00000  Uiso   1.00
O316   O     0.96329   0.10808   0.97484   0.00000  Uiso   1.00
N317   N     0.31679   0.41865   0.87581   0.00000  Uiso   1.00
N318   N     0.07805   0.90547   0.71489   0.00000  Uiso   1.00
N319   N     0.01182   0.20272   0.88169   0.00000  Uiso   1.00
N320   N     0.31953   0.47637   0.01568   0.00000  Uiso   1.00
N321   N     0.08079   0.96318   0.85476   0.00000  Uiso   1.00
N322   N     0.01456   0.26044   0.02156   0.00000  Uiso   1.00
C323   C     0.63532   0.00381   0.81183   0.00000  Uiso   1.00
C324   C     0.68600   0.99443   0.86365   0.00000  Uiso   1.00
C325   C     0.72709   0.95440   0.82930   0.00000  Uiso   1.00
C326   C     0.77004   0.95255   0.88752   0.00000  Uiso   1.00
C327   C     0.84848   0.93243   0.95438   0.00000  Uiso   1.00
C328   C     0.62021   0.12861   0.81930   0.00000  Uiso   1.00
C329   C     0.60597   0.20139   0.74766   0.00000  Uiso   1.00
C330   C     0.59354   0.31249   0.76855   0.00000  Uiso   1.00
C331   C     0.56979   0.50066   0.76655   0.00000  Uiso   1.00
C332   C     0.60197   0.93492   0.86527   0.00000  Uiso   1.00
C333   C     0.57237   0.84487   0.83228   0.00000  Uiso   1.00
C334   C     0.54457   0.79291   0.89188   0.00000  Uiso   1.00
C335   C     0.49249   0.68036   0.96125   0.00000  Uiso   1.00
C336   C     0.63855   0.07169   0.97632   0.00000  Uiso   1.00
C337   C     0.68776   0.03130   0.95299   0.00000  Uiso   1.00
C338   C     0.73066   0.02950   0.01129   0.00000  Uiso   1.00
C339   C     0.77180   0.98948   0.97703   0.00000  Uiso   1.00
C340   C     0.62196   0.16548   0.90864   0.00000  Uiso   1.00
C341   C     0.60954   0.27649   0.92965   0.00000  Uiso   1.00
C342   C     0.59529   0.34943   0.85806   0.00000  Uiso   1.00
C343   C     0.60372   0.97179   0.95462   0.00000  Uiso   1.00
C344   C     0.57595   0.91997   0.01427   0.00000  Uiso   1.00
C345   C     0.54632   0.82985   0.98138   0.00000  Uiso   1.00
H346   H     0.63396   0.97511   0.74228   0.00000  Uiso   1.00
H347   H     0.72572   0.92589   0.76015   0.00000  Uiso   1.00
H348   H     0.60462   0.17283   0.67853   0.00000  Uiso   1.00
H349   H     0.57103   0.81636   0.76314   0.00000  Uiso   1.00
H350   H     0.82823   0.88761   0.81936   0.00000  Uiso   1.00
H351   H     0.57287   0.40830   0.64725   0.00000  Uiso   1.00
H352   H     0.50203   0.65661   0.82567   0.00000  Uiso   1.00
H353   H     0.63991   0.10040   0.04588   0.00000  Uiso   1.00
H354   H     0.73200   0.05804   0.08042   0.00000  Uiso   1.00
H355   H     0.61090   0.30499   0.99879   0.00000  Uiso   1.00
H356   H     0.57731   0.94852   0.08341   0.00000  Uiso   1.00
H357   H     0.83333   0.99488   0.07930   0.00000  Uiso   1.00
H358   H     0.57796   0.51557   0.90719   0.00000  Uiso   1.00
H359   H     0.50713   0.76388   0.08561   0.00000  Uiso   1.00
O360   O     0.89125   0.91116   0.96657   0.00000  Uiso   1.00
O361   O     0.55622   0.59427   0.74076   0.00000  Uiso   1.00
O362   O     0.46329   0.60808   0.97484   0.00000  Uiso   1.00
N363   N     0.81679   0.91865   0.87581   0.00000  Uiso   1.00
N364   N     0.57805   0.40547   0.71489   0.00000  Uiso   1.00
N365   N     0.51182   0.70272   0.88169   0.00000  Uiso   1.00
N366   N     0.81953   0.97637   0.01568   0.00000  Uiso   1.00
N367   N     0.58079   0.46318   0.85476   0.00000  Uiso   1.00
N368   N     0.51456   0.76044   0.02156   0.00000  Uiso   1.00
