data_job_05523
_audit_creation_date              2018-12-19
_audit_creation_method            'Materials Studio'
_symmetry_space_group_name_H-M    'P1'
_symmetry_Int_Tables_number       1
_symmetry_cell_setting            triclinic
loop_
_symmetry_equiv_pos_as_xyz
  x,y,z
_cell_length_a                    23.9347
_cell_length_b                    27.0026
_cell_length_c                    9.5165
_cell_angle_alpha                 90.0000
_cell_angle_beta                  90.0000
_cell_angle_gamma                 90.0000
loop_
_atom_site_label
_atom_site_type_symbol
_atom_site_fract_x
_atom_site_fract_y
_atom_site_fract_z
_atom_site_U_iso_or_equiv
_atom_site_adp_type
_atom_site_occupancy
C1     C     0.78156   0.38879   0.13646   0.00000  Uiso   1.00
C2     C     0.78629   0.38013   0.29436   0.00000  Uiso   1.00
C3     C     0.79995   0.33560   0.35853   0.00000  Uiso   1.00
C4     C     0.80210   0.33528   0.50432   0.00000  Uiso   1.00
C5     C     0.81111   0.31533   0.73753   0.00000  Uiso   1.00
C6     C     0.72289   0.40898   0.11157   0.00000  Uiso   1.00
C7     C     0.68324   0.38870   0.02204   0.00000  Uiso   1.00
C8     C     0.63203   0.41268   0.01395   0.00000  Uiso   1.00
C9     C     0.54261   0.43753   0.96331   0.00000  Uiso   1.00
C10    C     0.82149   0.43116   0.10268   0.00000  Uiso   1.00
C11    C     0.86473   0.42955   0.00565   0.00000  Uiso   1.00
C12    C     0.89652   0.47220   0.99005   0.00000  Uiso   1.00
C13    C     0.96020   0.53150   0.92560   0.00000  Uiso   1.00
C14    C     0.76111   0.46743   0.28126   0.00000  Uiso   1.00
C15    C     0.77518   0.42284   0.37300   0.00000  Uiso   1.00
C16    C     0.77732   0.42260   0.51873   0.00000  Uiso   1.00
C17    C     0.79097   0.37807   0.58311   0.00000  Uiso   1.00
C18    C     0.71178   0.45169   0.19022   0.00000  Uiso   1.00
C19    C     0.66061   0.47571   0.18225   0.00000  Uiso   1.00
C20    C     0.62089   0.45547   0.09274   0.00000  Uiso   1.00
C21    C     0.81038   0.47388   0.18133   0.00000  Uiso   1.00
C22    C     0.84210   0.51655   0.16586   0.00000  Uiso   1.00
C23    C     0.88539   0.51500   0.06884   0.00000  Uiso   1.00
H24    H     0.79021   0.35554   0.07522   0.00000  Uiso   1.00
H25    H     0.80854   0.30255   0.29762   0.00000  Uiso   1.00
H26    H     0.69186   0.35565   0.96118   0.00000  Uiso   1.00
H27    H     0.87332   0.39649   0.94480   0.00000  Uiso   1.00
H28    H     0.82394   0.26263   0.57888   0.00000  Uiso   1.00
H29    H     0.57791   0.37460   0.86945   0.00000  Uiso   1.00
H30    H     0.96056   0.46071   0.83489   0.00000  Uiso   1.00
H31    H     0.75245   0.50069   0.34249   0.00000  Uiso   1.00
H32    H     0.76871   0.45566   0.57957   0.00000  Uiso   1.00
H33    H     0.65203   0.50876   0.24312   0.00000  Uiso   1.00
H34    H     0.83349   0.54960   0.22674   0.00000  Uiso   1.00
H35    H     0.79161   0.38690   0.80772   0.00000  Uiso   1.00
H36    H     0.54558   0.49888   0.09827   0.00000  Uiso   1.00
H37    H     0.92824   0.58498   0.06373   0.00000  Uiso   1.00
O38    O     0.81913   0.29252   0.84444   0.00000  Uiso   1.00
O39    O     0.49636   0.43943   0.91366   0.00000  Uiso   1.00
O40    O     0.99839   0.55240   0.86834   0.00000  Uiso   1.00
N41    N     0.81411   0.29806   0.60020   0.00000  Uiso   1.00
N42    N     0.58409   0.40274   0.93694   0.00000  Uiso   1.00
N43    N     0.94182   0.48325   0.90461   0.00000  Uiso   1.00
N44    N     0.79672   0.36492   0.72334   0.00000  Uiso   1.00
N45    N     0.56669   0.46961   0.06007   0.00000  Uiso   1.00
N46    N     0.92443   0.55012   0.02774   0.00000  Uiso   1.00
C47    C     0.22352   0.61294   0.94939   0.00000  Uiso   1.00
C48    C     0.21914   0.62159   0.79142   0.00000  Uiso   1.00
C49    C     0.20764   0.66653   0.72684   0.00000  Uiso   1.00
C50    C     0.20543   0.66674   0.58106   0.00000  Uiso   1.00
C51    C     0.19730   0.68674   0.34768   0.00000  Uiso   1.00
C52    C     0.28117   0.59056   0.97431   0.00000  Uiso   1.00
C53    C     0.32181   0.60940   0.06353   0.00000  Uiso   1.00
C54    C     0.37181   0.58349   0.07172   0.00000  Uiso   1.00
C55    C     0.45996   0.55530   0.12236   0.00000  Uiso   1.00
C56    C     0.18159   0.57218   0.98369   0.00000  Uiso   1.00
C57    C     0.13851   0.57558   0.08083   0.00000  Uiso   1.00
C58    C     0.10467   0.53419   0.09694   0.00000  Uiso   1.00
C59    C     0.03820   0.47748   0.16215   0.00000  Uiso   1.00
C60    C     0.24005   0.53342   0.80531   0.00000  Uiso   1.00
C61    C     0.22812   0.57839   0.71316   0.00000  Uiso   1.00
C62    C     0.22593   0.57854   0.56744   0.00000  Uiso   1.00
C63    C     0.21442   0.62347   0.50266   0.00000  Uiso   1.00
C64    C     0.29015   0.54736   0.89606   0.00000  Uiso   1.00
C65    C     0.34010   0.52142   0.90412   0.00000  Uiso   1.00
C66    C     0.38081   0.54022   0.99332   0.00000  Uiso   1.00
C67    C     0.19056   0.52899   0.90544   0.00000  Uiso   1.00
C68    C     0.15679   0.48759   0.92141   0.00000  Uiso   1.00
C69    C     0.11367   0.49092   0.01854   0.00000  Uiso   1.00
H70    H     0.21654   0.64657   0.01032   0.00000  Uiso   1.00
H71    H     0.20070   0.69995   0.78744   0.00000  Uiso   1.00
H72    H     0.31485   0.64283   0.12409   0.00000  Uiso   1.00
H73    H     0.13157   0.60901   0.14137   0.00000  Uiso   1.00
H74    H     0.18713   0.74008   0.50583   0.00000  Uiso   1.00
H75    H     0.42781   0.61963   0.21570   0.00000  Uiso   1.00
H76    H     0.04133   0.54832   0.25215   0.00000  Uiso   1.00
H77    H     0.24704   0.49979   0.74438   0.00000  Uiso   1.00
H78    H     0.23288   0.54511   0.50691   0.00000  Uiso   1.00
H79    H     0.34703   0.48799   0.84355   0.00000  Uiso   1.00
H80    H     0.16375   0.45417   0.86084   0.00000  Uiso   1.00
H81    H     0.21325   0.61441   0.27814   0.00000  Uiso   1.00
H82    H     0.45393   0.49396   0.98801   0.00000  Uiso   1.00
H83    H     0.06745   0.42265   0.02446   0.00000  Uiso   1.00
O84    O     0.19034   0.70971   0.24057   0.00000  Uiso   1.00
O85    O     0.50610   0.55168   0.17191   0.00000  Uiso   1.00
O86    O     0.99905   0.45812   0.21972   0.00000  Uiso   1.00
N87    N     0.19521   0.70428   0.48484   0.00000  Uiso   1.00
N88    N     0.42023   0.59167   0.14850   0.00000  Uiso   1.00
N89    N     0.05892   0.52500   0.18261   0.00000  Uiso   1.00
N90    N     0.20926   0.63666   0.36232   0.00000  Uiso   1.00
N91    N     0.43429   0.52405   0.02598   0.00000  Uiso   1.00
N92    N     0.07297   0.45738   0.06009   0.00000  Uiso   1.00
C93    C     0.71844   0.61121   0.63646   0.00000  Uiso   1.00
C94    C     0.71371   0.61987   0.79436   0.00000  Uiso   1.00
C95    C     0.70005   0.66440   0.85853   0.00000  Uiso   1.00
C96    C     0.69790   0.66472   0.00432   0.00000  Uiso   1.00
C97    C     0.68889   0.68467   0.23753   0.00000  Uiso   1.00
C98    C     0.77711   0.59102   0.61157   0.00000  Uiso   1.00
C99    C     0.81676   0.61130   0.52204   0.00000  Uiso   1.00
C100   C     0.86797   0.58732   0.51395   0.00000  Uiso   1.00
C101   C     0.95739   0.56247   0.46331   0.00000  Uiso   1.00
C102   C     0.67851   0.56884   0.60268   0.00000  Uiso   1.00
C103   C     0.63527   0.57045   0.50565   0.00000  Uiso   1.00
C104   C     0.60348   0.52780   0.49005   0.00000  Uiso   1.00
C105   C     0.53980   0.46850   0.42560   0.00000  Uiso   1.00
C106   C     0.73889   0.53257   0.78126   0.00000  Uiso   1.00
C107   C     0.72482   0.57716   0.87300   0.00000  Uiso   1.00
C108   C     0.72268   0.57740   0.01873   0.00000  Uiso   1.00
C109   C     0.70903   0.62193   0.08311   0.00000  Uiso   1.00
C110   C     0.78822   0.54831   0.69022   0.00000  Uiso   1.00
C111   C     0.83939   0.52429   0.68225   0.00000  Uiso   1.00
C112   C     0.87911   0.54453   0.59274   0.00000  Uiso   1.00
C113   C     0.68962   0.52612   0.68133   0.00000  Uiso   1.00
C114   C     0.65790   0.48345   0.66586   0.00000  Uiso   1.00
C115   C     0.61461   0.48500   0.56884   0.00000  Uiso   1.00
H116   H     0.70979   0.64446   0.57522   0.00000  Uiso   1.00
H117   H     0.69146   0.69745   0.79762   0.00000  Uiso   1.00
H118   H     0.80814   0.64435   0.46118   0.00000  Uiso   1.00
H119   H     0.62668   0.60351   0.44480   0.00000  Uiso   1.00
H120   H     0.67606   0.73737   0.07888   0.00000  Uiso   1.00
H121   H     0.92209   0.62540   0.36945   0.00000  Uiso   1.00
H122   H     0.53944   0.53929   0.33489   0.00000  Uiso   1.00
H123   H     0.74755   0.49931   0.84249   0.00000  Uiso   1.00
H124   H     0.73129   0.54434   0.07957   0.00000  Uiso   1.00
H125   H     0.84797   0.49124   0.74312   0.00000  Uiso   1.00
H126   H     0.66651   0.45040   0.72674   0.00000  Uiso   1.00
H127   H     0.70839   0.61310   0.30772   0.00000  Uiso   1.00
H128   H     0.95442   0.50112   0.59827   0.00000  Uiso   1.00
H129   H     0.57176   0.41502   0.56373   0.00000  Uiso   1.00
O130   O     0.68087   0.70748   0.34444   0.00000  Uiso   1.00
O131   O     0.00364   0.56057   0.41366   0.00000  Uiso   1.00
O132   O     0.50161   0.44760   0.36834   0.00000  Uiso   1.00
N133   N     0.68589   0.70194   0.10020   0.00000  Uiso   1.00
N134   N     0.91591   0.59726   0.43694   0.00000  Uiso   1.00
N135   N     0.55818   0.51675   0.40461   0.00000  Uiso   1.00
N136   N     0.70328   0.63508   0.22334   0.00000  Uiso   1.00
N137   N     0.93331   0.53039   0.56007   0.00000  Uiso   1.00
N138   N     0.57557   0.44988   0.52774   0.00000  Uiso   1.00
C139   C     0.27648   0.38706   0.44939   0.00000  Uiso   1.00
C140   C     0.28086   0.37841   0.29142   0.00000  Uiso   1.00
C141   C     0.29236   0.33347   0.22684   0.00000  Uiso   1.00
C142   C     0.29457   0.33326   0.08106   0.00000  Uiso   1.00
C143   C     0.30270   0.31326   0.84768   0.00000  Uiso   1.00
C144   C     0.21883   0.40944   0.47431   0.00000  Uiso   1.00
C145   C     0.17819   0.39060   0.56353   0.00000  Uiso   1.00
C146   C     0.12819   0.41651   0.57172   0.00000  Uiso   1.00
C147   C     0.04004   0.44470   0.62236   0.00000  Uiso   1.00
C148   C     0.31841   0.42782   0.48369   0.00000  Uiso   1.00
C149   C     0.36149   0.42442   0.58083   0.00000  Uiso   1.00
C150   C     0.39533   0.46581   0.59694   0.00000  Uiso   1.00
C151   C     0.46180   0.52252   0.66215   0.00000  Uiso   1.00
C152   C     0.25995   0.46658   0.30531   0.00000  Uiso   1.00
C153   C     0.27188   0.42161   0.21316   0.00000  Uiso   1.00
C154   C     0.27407   0.42146   0.06744   0.00000  Uiso   1.00
C155   C     0.28558   0.37653   0.00266   0.00000  Uiso   1.00
C156   C     0.20985   0.45264   0.39606   0.00000  Uiso   1.00
C157   C     0.15990   0.47858   0.40412   0.00000  Uiso   1.00
C158   C     0.11919   0.45978   0.49332   0.00000  Uiso   1.00
C159   C     0.30944   0.47101   0.40544   0.00000  Uiso   1.00
C160   C     0.34321   0.51241   0.42141   0.00000  Uiso   1.00
C161   C     0.38633   0.50908   0.51854   0.00000  Uiso   1.00
H162   H     0.28346   0.35343   0.51032   0.00000  Uiso   1.00
H163   H     0.29930   0.30005   0.28744   0.00000  Uiso   1.00
H164   H     0.18515   0.35717   0.62409   0.00000  Uiso   1.00
H165   H     0.36843   0.39099   0.64137   0.00000  Uiso   1.00
H166   H     0.31287   0.25992   0.00583   0.00000  Uiso   1.00
H167   H     0.07219   0.38037   0.71570   0.00000  Uiso   1.00
H168   H     0.45867   0.45168   0.75215   0.00000  Uiso   1.00
H169   H     0.25296   0.50021   0.24438   0.00000  Uiso   1.00
H170   H     0.26712   0.45489   0.00691   0.00000  Uiso   1.00
H171   H     0.15297   0.51201   0.34355   0.00000  Uiso   1.00
H172   H     0.33625   0.54583   0.36084   0.00000  Uiso   1.00
H173   H     0.28675   0.38559   0.77814   0.00000  Uiso   1.00
H174   H     0.04607   0.50604   0.48801   0.00000  Uiso   1.00
H175   H     0.43255   0.57735   0.52446   0.00000  Uiso   1.00
O176   O     0.30966   0.29029   0.74057   0.00000  Uiso   1.00
O177   O     0.99390   0.44832   0.67191   0.00000  Uiso   1.00
O178   O     0.50095   0.54188   0.71972   0.00000  Uiso   1.00
N179   N     0.30479   0.29572   0.98484   0.00000  Uiso   1.00
N180   N     0.07977   0.40833   0.64850   0.00000  Uiso   1.00
N181   N     0.44108   0.47500   0.68261   0.00000  Uiso   1.00
N182   N     0.29074   0.36334   0.86232   0.00000  Uiso   1.00
N183   N     0.06571   0.47595   0.52598   0.00000  Uiso   1.00
N184   N     0.42703   0.54262   0.56009   0.00000  Uiso   1.00
C185   C     0.21844   0.88879   0.36354   0.00000  Uiso   1.00
C186   C     0.21371   0.88013   0.20564   0.00000  Uiso   1.00
C187   C     0.20005   0.83560   0.14147   0.00000  Uiso   1.00
C188   C     0.19790   0.83528   0.99568   0.00000  Uiso   1.00
C189   C     0.18889   0.81533   0.76247   0.00000  Uiso   1.00
C190   C     0.27711   0.90898   0.38843   0.00000  Uiso   1.00
C191   C     0.31676   0.88870   0.47796   0.00000  Uiso   1.00
C192   C     0.36797   0.91268   0.48605   0.00000  Uiso   1.00
C193   C     0.45739   0.93753   0.53669   0.00000  Uiso   1.00
C194   C     0.17851   0.93116   0.39732   0.00000  Uiso   1.00
C195   C     0.13527   0.92955   0.49435   0.00000  Uiso   1.00
C196   C     0.10348   0.97220   0.50995   0.00000  Uiso   1.00
C197   C     0.03980   0.03150   0.57440   0.00000  Uiso   1.00
C198   C     0.23889   0.96743   0.21874   0.00000  Uiso   1.00
C199   C     0.22482   0.92284   0.12700   0.00000  Uiso   1.00
C200   C     0.22268   0.92260   0.98127   0.00000  Uiso   1.00
C201   C     0.20903   0.87807   0.91689   0.00000  Uiso   1.00
C202   C     0.28822   0.95169   0.30978   0.00000  Uiso   1.00
C203   C     0.33939   0.97571   0.31775   0.00000  Uiso   1.00
C204   C     0.37911   0.95547   0.40726   0.00000  Uiso   1.00
C205   C     0.18962   0.97388   0.31867   0.00000  Uiso   1.00
C206   C     0.15790   0.01655   0.33414   0.00000  Uiso   1.00
C207   C     0.11461   0.01500   0.43116   0.00000  Uiso   1.00
H208   H     0.20979   0.85554   0.42478   0.00000  Uiso   1.00
H209   H     0.19146   0.80255   0.20238   0.00000  Uiso   1.00
H210   H     0.30814   0.85565   0.53882   0.00000  Uiso   1.00
H211   H     0.12668   0.89649   0.55520   0.00000  Uiso   1.00
H212   H     0.17606   0.76263   0.92112   0.00000  Uiso   1.00
H213   H     0.42209   0.87460   0.63055   0.00000  Uiso   1.00
H214   H     0.03944   0.96071   0.66511   0.00000  Uiso   1.00
H215   H     0.24755   0.00069   0.15751   0.00000  Uiso   1.00
H216   H     0.23129   0.95566   0.92043   0.00000  Uiso   1.00
H217   H     0.34797   0.00876   0.25688   0.00000  Uiso   1.00
H218   H     0.16651   0.04960   0.27326   0.00000  Uiso   1.00
H219   H     0.20839   0.88690   0.69228   0.00000  Uiso   1.00
H220   H     0.45442   0.99888   0.40173   0.00000  Uiso   1.00
H221   H     0.07176   0.08498   0.43627   0.00000  Uiso   1.00
O222   O     0.18087   0.79252   0.65556   0.00000  Uiso   1.00
O223   O     0.50364   0.93943   0.58634   0.00000  Uiso   1.00
O224   O     0.00161   0.05240   0.63166   0.00000  Uiso   1.00
N225   N     0.18589   0.79806   0.89980   0.00000  Uiso   1.00
N226   N     0.41591   0.90274   0.56306   0.00000  Uiso   1.00
N227   N     0.05818   0.98325   0.59539   0.00000  Uiso   1.00
N228   N     0.20328   0.86492   0.77666   0.00000  Uiso   1.00
N229   N     0.43331   0.96961   0.43993   0.00000  Uiso   1.00
N230   N     0.07557   0.05012   0.47226   0.00000  Uiso   1.00
C231   C     0.77648   0.11294   0.55061   0.00000  Uiso   1.00
C232   C     0.78086   0.12159   0.70858   0.00000  Uiso   1.00
C233   C     0.79236   0.16653   0.77316   0.00000  Uiso   1.00
C234   C     0.79457   0.16674   0.91894   0.00000  Uiso   1.00
C235   C     0.80270   0.18674   0.15232   0.00000  Uiso   1.00
C236   C     0.71883   0.09056   0.52569   0.00000  Uiso   1.00
C237   C     0.67819   0.10940   0.43647   0.00000  Uiso   1.00
C238   C     0.62819   0.08349   0.42828   0.00000  Uiso   1.00
C239   C     0.54004   0.05530   0.37764   0.00000  Uiso   1.00
C240   C     0.81841   0.07218   0.51631   0.00000  Uiso   1.00
C241   C     0.86149   0.07558   0.41917   0.00000  Uiso   1.00
C242   C     0.89533   0.03419   0.40306   0.00000  Uiso   1.00
C243   C     0.96180   0.97748   0.33785   0.00000  Uiso   1.00
C244   C     0.75995   0.03342   0.69469   0.00000  Uiso   1.00
C245   C     0.77188   0.07839   0.78684   0.00000  Uiso   1.00
C246   C     0.77407   0.07854   0.93256   0.00000  Uiso   1.00
C247   C     0.78558   0.12347   0.99734   0.00000  Uiso   1.00
C248   C     0.70985   0.04736   0.60394   0.00000  Uiso   1.00
C249   C     0.65990   0.02142   0.59588   0.00000  Uiso   1.00
C250   C     0.61919   0.04022   0.50668   0.00000  Uiso   1.00
C251   C     0.80944   0.02899   0.59456   0.00000  Uiso   1.00
C252   C     0.84321   0.98759   0.57859   0.00000  Uiso   1.00
C253   C     0.88633   0.99092   0.48146   0.00000  Uiso   1.00
H254   H     0.78346   0.14657   0.48968   0.00000  Uiso   1.00
H255   H     0.79930   0.19995   0.71256   0.00000  Uiso   1.00
H256   H     0.68515   0.14283   0.37591   0.00000  Uiso   1.00
H257   H     0.86843   0.10901   0.35863   0.00000  Uiso   1.00
H258   H     0.81287   0.24008   0.99417   0.00000  Uiso   1.00
H259   H     0.57219   0.11963   0.28430   0.00000  Uiso   1.00
H260   H     0.95867   0.04832   0.24785   0.00000  Uiso   1.00
H261   H     0.75296   0.99979   0.75562   0.00000  Uiso   1.00
H262   H     0.76712   0.04511   0.99309   0.00000  Uiso   1.00
H263   H     0.65297   0.98799   0.65645   0.00000  Uiso   1.00
H264   H     0.83625   0.95417   0.63916   0.00000  Uiso   1.00
H265   H     0.78675   0.11441   0.22186   0.00000  Uiso   1.00
H266   H     0.54607   0.99396   0.51199   0.00000  Uiso   1.00
H267   H     0.93255   0.92265   0.47554   0.00000  Uiso   1.00
O268   O     0.80966   0.20971   0.25943   0.00000  Uiso   1.00
O269   O     0.49390   0.05168   0.32809   0.00000  Uiso   1.00
O270   O     0.00095   0.95812   0.28028   0.00000  Uiso   1.00
N271   N     0.80479   0.20428   0.01516   0.00000  Uiso   1.00
N272   N     0.57977   0.09167   0.35150   0.00000  Uiso   1.00
N273   N     0.94108   0.02500   0.31739   0.00000  Uiso   1.00
N274   N     0.79074   0.13666   0.13768   0.00000  Uiso   1.00
N275   N     0.56571   0.02405   0.47402   0.00000  Uiso   1.00
N276   N     0.92703   0.95738   0.43991   0.00000  Uiso   1.00
C277   C     0.28156   0.11121   0.86354   0.00000  Uiso   1.00
C278   C     0.28629   0.11987   0.70564   0.00000  Uiso   1.00
C279   C     0.29995   0.16440   0.64147   0.00000  Uiso   1.00
C280   C     0.30210   0.16472   0.49568   0.00000  Uiso   1.00
C281   C     0.31111   0.18467   0.26247   0.00000  Uiso   1.00
C282   C     0.22289   0.09102   0.88843   0.00000  Uiso   1.00
C283   C     0.18324   0.11130   0.97796   0.00000  Uiso   1.00
C284   C     0.13203   0.08732   0.98605   0.00000  Uiso   1.00
C285   C     0.04261   0.06247   0.03669   0.00000  Uiso   1.00
C286   C     0.32149   0.06884   0.89732   0.00000  Uiso   1.00
C287   C     0.36473   0.07045   0.99435   0.00000  Uiso   1.00
C288   C     0.39652   0.02780   0.00995   0.00000  Uiso   1.00
C289   C     0.46020   0.96850   0.07440   0.00000  Uiso   1.00
C290   C     0.26111   0.03257   0.71874   0.00000  Uiso   1.00
C291   C     0.27518   0.07716   0.62700   0.00000  Uiso   1.00
C292   C     0.27732   0.07740   0.48127   0.00000  Uiso   1.00
C293   C     0.29097   0.12193   0.41689   0.00000  Uiso   1.00
C294   C     0.21178   0.04831   0.80978   0.00000  Uiso   1.00
C295   C     0.16061   0.02429   0.81775   0.00000  Uiso   1.00
C296   C     0.12089   0.04453   0.90726   0.00000  Uiso   1.00
C297   C     0.31038   0.02612   0.81867   0.00000  Uiso   1.00
C298   C     0.34210   0.98345   0.83414   0.00000  Uiso   1.00
C299   C     0.38539   0.98500   0.93116   0.00000  Uiso   1.00
H300   H     0.29021   0.14446   0.92478   0.00000  Uiso   1.00
H301   H     0.30854   0.19745   0.70238   0.00000  Uiso   1.00
H302   H     0.19186   0.14435   0.03882   0.00000  Uiso   1.00
H303   H     0.37332   0.10351   0.05520   0.00000  Uiso   1.00
H304   H     0.32394   0.23737   0.42112   0.00000  Uiso   1.00
H305   H     0.07791   0.12540   0.13055   0.00000  Uiso   1.00
H306   H     0.46056   0.03929   0.16511   0.00000  Uiso   1.00
H307   H     0.25245   0.99931   0.65751   0.00000  Uiso   1.00
H308   H     0.26871   0.04434   0.42043   0.00000  Uiso   1.00
H309   H     0.15203   0.99124   0.75688   0.00000  Uiso   1.00
H310   H     0.33349   0.95040   0.77326   0.00000  Uiso   1.00
H311   H     0.29161   0.11310   0.19228   0.00000  Uiso   1.00
H312   H     0.04558   0.00112   0.90173   0.00000  Uiso   1.00
H313   H     0.42824   0.91502   0.93627   0.00000  Uiso   1.00
O314   O     0.31913   0.20748   0.15556   0.00000  Uiso   1.00
O315   O     0.99636   0.06057   0.08634   0.00000  Uiso   1.00
O316   O     0.49839   0.94760   0.13166   0.00000  Uiso   1.00
N317   N     0.31411   0.20194   0.39980   0.00000  Uiso   1.00
N318   N     0.08409   0.09726   0.06306   0.00000  Uiso   1.00
N319   N     0.44182   0.01675   0.09539   0.00000  Uiso   1.00
N320   N     0.29672   0.13508   0.27666   0.00000  Uiso   1.00
N321   N     0.06669   0.03039   0.93993   0.00000  Uiso   1.00
N322   N     0.42443   0.94988   0.97226   0.00000  Uiso   1.00
C323   C     0.72352   0.88706   0.05061   0.00000  Uiso   1.00
C324   C     0.71914   0.87841   0.20858   0.00000  Uiso   1.00
C325   C     0.70764   0.83347   0.27316   0.00000  Uiso   1.00
C326   C     0.70543   0.83326   0.41894   0.00000  Uiso   1.00
C327   C     0.69730   0.81326   0.65232   0.00000  Uiso   1.00
C328   C     0.78117   0.90944   0.02569   0.00000  Uiso   1.00
C329   C     0.82181   0.89060   0.93647   0.00000  Uiso   1.00
C330   C     0.87181   0.91651   0.92828   0.00000  Uiso   1.00
C331   C     0.95996   0.94470   0.87764   0.00000  Uiso   1.00
C332   C     0.68159   0.92782   0.01631   0.00000  Uiso   1.00
C333   C     0.63851   0.92442   0.91917   0.00000  Uiso   1.00
C334   C     0.60467   0.96581   0.90306   0.00000  Uiso   1.00
C335   C     0.53820   0.02252   0.83785   0.00000  Uiso   1.00
C336   C     0.74005   0.96658   0.19469   0.00000  Uiso   1.00
C337   C     0.72812   0.92161   0.28684   0.00000  Uiso   1.00
C338   C     0.72593   0.92146   0.43256   0.00000  Uiso   1.00
C339   C     0.71442   0.87653   0.49734   0.00000  Uiso   1.00
C340   C     0.79015   0.95264   0.10394   0.00000  Uiso   1.00
C341   C     0.84010   0.97858   0.09588   0.00000  Uiso   1.00
C342   C     0.88081   0.95978   0.00668   0.00000  Uiso   1.00
C343   C     0.69056   0.97101   0.09456   0.00000  Uiso   1.00
C344   C     0.65679   0.01241   0.07859   0.00000  Uiso   1.00
C345   C     0.61367   0.00908   0.98146   0.00000  Uiso   1.00
H346   H     0.71654   0.85343   0.98968   0.00000  Uiso   1.00
H347   H     0.70070   0.80005   0.21256   0.00000  Uiso   1.00
H348   H     0.81485   0.85717   0.87591   0.00000  Uiso   1.00
H349   H     0.63157   0.89099   0.85863   0.00000  Uiso   1.00
H350   H     0.68713   0.75992   0.49417   0.00000  Uiso   1.00
H351   H     0.92781   0.88037   0.78430   0.00000  Uiso   1.00
H352   H     0.54133   0.95168   0.74785   0.00000  Uiso   1.00
H353   H     0.74704   0.00021   0.25562   0.00000  Uiso   1.00
H354   H     0.73288   0.95489   0.49309   0.00000  Uiso   1.00
H355   H     0.84703   0.01201   0.15645   0.00000  Uiso   1.00
H356   H     0.66375   0.04583   0.13916   0.00000  Uiso   1.00
H357   H     0.71325   0.88559   0.72186   0.00000  Uiso   1.00
H358   H     0.95393   0.00604   0.01199   0.00000  Uiso   1.00
H359   H     0.56745   0.07735   0.97554   0.00000  Uiso   1.00
O360   O     0.69034   0.79029   0.75943   0.00000  Uiso   1.00
O361   O     0.00610   0.94832   0.82809   0.00000  Uiso   1.00
O362   O     0.49905   0.04188   0.78028   0.00000  Uiso   1.00
N363   N     0.69521   0.79572   0.51516   0.00000  Uiso   1.00
N364   N     0.92023   0.90833   0.85150   0.00000  Uiso   1.00
N365   N     0.55892   0.97500   0.81739   0.00000  Uiso   1.00
N366   N     0.70926   0.86334   0.63768   0.00000  Uiso   1.00
N367   N     0.93429   0.97595   0.97402   0.00000  Uiso   1.00
N368   N     0.57297   0.04262   0.93991   0.00000  Uiso   1.00
