data_job_03678
_audit_creation_date              2018-12-19
_audit_creation_method            'Materials Studio'
_symmetry_space_group_name_H-M    'P1'
_symmetry_Int_Tables_number       1
_symmetry_cell_setting            triclinic
loop_
_symmetry_equiv_pos_as_xyz
  x,y,z
_cell_length_a                    28.6433
_cell_length_b                    26.2329
_cell_length_c                    9.4424
_cell_angle_alpha                 90.0000
_cell_angle_beta                  81.0834
_cell_angle_gamma                 90.0000
loop_
_atom_site_label
_atom_site_type_symbol
_atom_site_fract_x
_atom_site_fract_y
_atom_site_fract_z
_atom_site_U_iso_or_equiv
_atom_site_adp_type
_atom_site_occupancy
C1     C     0.19590   0.57698   0.94131   0.00000  Uiso   1.00
C2     C     0.22990   0.60593   0.02139   0.00000  Uiso   1.00
C3     C     0.27746   0.59493   0.01770   0.00000  Uiso   1.00
C4     C     0.30253   0.62592   0.09845   0.00000  Uiso   1.00
C5     C     0.35864   0.66469   0.21047   0.00000  Uiso   1.00
C6     C     0.15526   0.55964   0.05492   0.00000  Uiso   1.00
C7     C     0.14007   0.50973   0.07941   0.00000  Uiso   1.00
C8     C     0.10230   0.50176   0.18838   0.00000  Uiso   1.00
C9     C     0.04250   0.46867   0.35238   0.00000  Uiso   1.00
C10    C     0.17507   0.61649   0.85041   0.00000  Uiso   1.00
C11    C     0.17652   0.61436   0.70293   0.00000  Uiso   1.00
C12    C     0.15542   0.65424   0.63971   0.00000  Uiso   1.00
C13    C     0.12638   0.70941   0.48617   0.00000  Uiso   1.00
C14    C     0.15583   0.65157   0.09129   0.00000  Uiso   1.00
C15    C     0.20814   0.64645   0.10286   0.00000  Uiso   1.00
C16    C     0.23314   0.67746   0.18364   0.00000  Uiso   1.00
C17    C     0.28073   0.66651   0.18006   0.00000  Uiso   1.00
C18    C     0.13350   0.60016   0.13639   0.00000  Uiso   1.00
C19    C     0.09574   0.59226   0.24534   0.00000  Uiso   1.00
C20    C     0.08050   0.54234   0.26999   0.00000  Uiso   1.00
C21    C     0.15331   0.65700   0.93187   0.00000  Uiso   1.00
C22    C     0.13220   0.69689   0.86887   0.00000  Uiso   1.00
C23    C     0.13362   0.69483   0.72133   0.00000  Uiso   1.00
H24    H     0.21284   0.54544   0.87789   0.00000  Uiso   1.00
H25    H     0.29429   0.56357   0.95465   0.00000  Uiso   1.00
H26    H     0.15691   0.47839   0.01634   0.00000  Uiso   1.00
H27    H     0.19336   0.58300   0.63992   0.00000  Uiso   1.00
H28    H     0.37500   0.60154   0.07572   0.00000  Uiso   1.00
H29    H     0.08532   0.42191   0.20576   0.00000  Uiso   1.00
H30    H     0.16218   0.64252   0.41201   0.00000  Uiso   1.00
H31    H     0.13889   0.68312   0.15472   0.00000  Uiso   1.00
H32    H     0.21629   0.70881   0.24667   0.00000  Uiso   1.00
H33    H     0.07891   0.62362   0.30836   0.00000  Uiso   1.00
H34    H     0.11536   0.72824   0.93195   0.00000  Uiso   1.00
H35    H     0.31169   0.71941   0.31274   0.00000  Uiso   1.00
H36    H     0.02200   0.53979   0.44278   0.00000  Uiso   1.00
H37    H     0.09887   0.76040   0.64903   0.00000  Uiso   1.00
O38    O     0.39559   0.67488   0.24976   0.00000  Uiso   1.00
O39    O     0.01553   0.43922   0.42035   0.00000  Uiso   1.00
O40    O     0.11638   0.72865   0.37897   0.00000  Uiso   1.00
N41    N     0.34948   0.62576   0.11886   0.00000  Uiso   1.00
N42    N     0.07865   0.45782   0.24046   0.00000  Uiso   1.00
N43    N     0.15050   0.66406   0.49837   0.00000  Uiso   1.00
N44    N     0.31541   0.68919   0.24640   0.00000  Uiso   1.00
N45    N     0.04458   0.52125   0.36799   0.00000  Uiso   1.00
N46    N     0.11643   0.72749   0.62591   0.00000  Uiso   1.00
C47    C     0.69590   0.07698   0.94131   0.00000  Uiso   1.00
C48    C     0.72990   0.10593   0.02139   0.00000  Uiso   1.00
C49    C     0.77746   0.09493   0.01770   0.00000  Uiso   1.00
C50    C     0.80253   0.12592   0.09845   0.00000  Uiso   1.00
C51    C     0.85864   0.16469   0.21047   0.00000  Uiso   1.00
C52    C     0.65526   0.05964   0.05492   0.00000  Uiso   1.00
C53    C     0.64007   0.00973   0.07941   0.00000  Uiso   1.00
C54    C     0.60230   0.00176   0.18838   0.00000  Uiso   1.00
C55    C     0.54250   0.96867   0.35238   0.00000  Uiso   1.00
C56    C     0.67507   0.11649   0.85041   0.00000  Uiso   1.00
C57    C     0.67652   0.11436   0.70293   0.00000  Uiso   1.00
C58    C     0.65542   0.15424   0.63971   0.00000  Uiso   1.00
C59    C     0.62638   0.20941   0.48617   0.00000  Uiso   1.00
C60    C     0.65583   0.15157   0.09129   0.00000  Uiso   1.00
C61    C     0.70814   0.14645   0.10286   0.00000  Uiso   1.00
C62    C     0.73314   0.17746   0.18364   0.00000  Uiso   1.00
C63    C     0.78073   0.16651   0.18006   0.00000  Uiso   1.00
C64    C     0.63350   0.10016   0.13639   0.00000  Uiso   1.00
C65    C     0.59574   0.09226   0.24534   0.00000  Uiso   1.00
C66    C     0.58050   0.04234   0.26999   0.00000  Uiso   1.00
C67    C     0.65331   0.15700   0.93187   0.00000  Uiso   1.00
C68    C     0.63220   0.19689   0.86887   0.00000  Uiso   1.00
C69    C     0.63362   0.19483   0.72133   0.00000  Uiso   1.00
H70    H     0.71284   0.04544   0.87789   0.00000  Uiso   1.00
H71    H     0.79429   0.06357   0.95465   0.00000  Uiso   1.00
H72    H     0.65691   0.97839   0.01634   0.00000  Uiso   1.00
H73    H     0.69336   0.08300   0.63992   0.00000  Uiso   1.00
H74    H     0.87500   0.10154   0.07572   0.00000  Uiso   1.00
H75    H     0.58532   0.92191   0.20576   0.00000  Uiso   1.00
H76    H     0.66218   0.14252   0.41201   0.00000  Uiso   1.00
H77    H     0.63889   0.18312   0.15472   0.00000  Uiso   1.00
H78    H     0.71629   0.20881   0.24667   0.00000  Uiso   1.00
H79    H     0.57891   0.12362   0.30836   0.00000  Uiso   1.00
H80    H     0.61536   0.22824   0.93195   0.00000  Uiso   1.00
H81    H     0.81169   0.21941   0.31274   0.00000  Uiso   1.00
H82    H     0.52200   0.03979   0.44278   0.00000  Uiso   1.00
H83    H     0.59887   0.26040   0.64903   0.00000  Uiso   1.00
O84    O     0.89559   0.17488   0.24976   0.00000  Uiso   1.00
O85    O     0.51553   0.93922   0.42035   0.00000  Uiso   1.00
O86    O     0.61638   0.22865   0.37897   0.00000  Uiso   1.00
N87    N     0.84948   0.12576   0.11886   0.00000  Uiso   1.00
N88    N     0.57865   0.95782   0.24046   0.00000  Uiso   1.00
N89    N     0.65050   0.16406   0.49837   0.00000  Uiso   1.00
N90    N     0.81541   0.18919   0.24640   0.00000  Uiso   1.00
N91    N     0.54458   0.02125   0.36799   0.00000  Uiso   1.00
N92    N     0.61643   0.22749   0.62591   0.00000  Uiso   1.00
C93    C     0.80410   0.57698   0.55869   0.00000  Uiso   1.00
C94    C     0.77010   0.60593   0.47861   0.00000  Uiso   1.00
C95    C     0.72254   0.59493   0.48230   0.00000  Uiso   1.00
C96    C     0.69747   0.62592   0.40155   0.00000  Uiso   1.00
C97    C     0.64136   0.66469   0.28953   0.00000  Uiso   1.00
C98    C     0.84474   0.55964   0.44508   0.00000  Uiso   1.00
C99    C     0.85993   0.50973   0.42059   0.00000  Uiso   1.00
C100   C     0.89770   0.50176   0.31162   0.00000  Uiso   1.00
C101   C     0.95750   0.46867   0.14762   0.00000  Uiso   1.00
C102   C     0.82493   0.61649   0.64959   0.00000  Uiso   1.00
C103   C     0.82348   0.61436   0.79707   0.00000  Uiso   1.00
C104   C     0.84458   0.65424   0.86029   0.00000  Uiso   1.00
C105   C     0.87362   0.70941   0.01383   0.00000  Uiso   1.00
C106   C     0.84417   0.65157   0.40871   0.00000  Uiso   1.00
C107   C     0.79186   0.64645   0.39714   0.00000  Uiso   1.00
C108   C     0.76686   0.67746   0.31636   0.00000  Uiso   1.00
C109   C     0.71927   0.66651   0.31994   0.00000  Uiso   1.00
C110   C     0.86650   0.60016   0.36361   0.00000  Uiso   1.00
C111   C     0.90426   0.59226   0.25466   0.00000  Uiso   1.00
C112   C     0.91950   0.54234   0.23001   0.00000  Uiso   1.00
C113   C     0.84669   0.65700   0.56813   0.00000  Uiso   1.00
C114   C     0.86780   0.69689   0.63113   0.00000  Uiso   1.00
C115   C     0.86638   0.69483   0.77867   0.00000  Uiso   1.00
H116   H     0.78716   0.54544   0.62211   0.00000  Uiso   1.00
H117   H     0.70571   0.56357   0.54535   0.00000  Uiso   1.00
H118   H     0.84309   0.47839   0.48366   0.00000  Uiso   1.00
H119   H     0.80664   0.58300   0.86008   0.00000  Uiso   1.00
H120   H     0.62500   0.60154   0.42428   0.00000  Uiso   1.00
H121   H     0.91468   0.42191   0.29424   0.00000  Uiso   1.00
H122   H     0.83782   0.64252   0.08799   0.00000  Uiso   1.00
H123   H     0.86111   0.68312   0.34528   0.00000  Uiso   1.00
H124   H     0.78371   0.70881   0.25333   0.00000  Uiso   1.00
H125   H     0.92109   0.62362   0.19164   0.00000  Uiso   1.00
H126   H     0.88464   0.72824   0.56805   0.00000  Uiso   1.00
H127   H     0.68831   0.71941   0.18726   0.00000  Uiso   1.00
H128   H     0.97800   0.53979   0.05722   0.00000  Uiso   1.00
H129   H     0.90113   0.76040   0.85097   0.00000  Uiso   1.00
O130   O     0.60441   0.67488   0.25024   0.00000  Uiso   1.00
O131   O     0.98447   0.43922   0.07965   0.00000  Uiso   1.00
O132   O     0.88362   0.72865   0.12103   0.00000  Uiso   1.00
N133   N     0.65052   0.62576   0.38114   0.00000  Uiso   1.00
N134   N     0.92135   0.45782   0.25954   0.00000  Uiso   1.00
N135   N     0.84950   0.66406   0.00163   0.00000  Uiso   1.00
N136   N     0.68459   0.68919   0.25360   0.00000  Uiso   1.00
N137   N     0.95542   0.52125   0.13201   0.00000  Uiso   1.00
N138   N     0.88357   0.72749   0.87409   0.00000  Uiso   1.00
C139   C     0.30410   0.07698   0.55869   0.00000  Uiso   1.00
C140   C     0.27010   0.10593   0.47861   0.00000  Uiso   1.00
C141   C     0.22254   0.09493   0.48230   0.00000  Uiso   1.00
C142   C     0.19747   0.12592   0.40155   0.00000  Uiso   1.00
C143   C     0.14136   0.16469   0.28953   0.00000  Uiso   1.00
C144   C     0.34474   0.05964   0.44508   0.00000  Uiso   1.00
C145   C     0.35993   0.00973   0.42059   0.00000  Uiso   1.00
C146   C     0.39770   0.00176   0.31162   0.00000  Uiso   1.00
C147   C     0.45750   0.96867   0.14762   0.00000  Uiso   1.00
C148   C     0.32493   0.11649   0.64959   0.00000  Uiso   1.00
C149   C     0.32348   0.11436   0.79707   0.00000  Uiso   1.00
C150   C     0.34458   0.15424   0.86029   0.00000  Uiso   1.00
C151   C     0.37362   0.20941   0.01383   0.00000  Uiso   1.00
C152   C     0.34417   0.15157   0.40871   0.00000  Uiso   1.00
C153   C     0.29186   0.14645   0.39714   0.00000  Uiso   1.00
C154   C     0.26686   0.17746   0.31636   0.00000  Uiso   1.00
C155   C     0.21927   0.16651   0.31994   0.00000  Uiso   1.00
C156   C     0.36650   0.10016   0.36361   0.00000  Uiso   1.00
C157   C     0.40426   0.09226   0.25466   0.00000  Uiso   1.00
C158   C     0.41950   0.04234   0.23001   0.00000  Uiso   1.00
C159   C     0.34669   0.15700   0.56813   0.00000  Uiso   1.00
C160   C     0.36780   0.19689   0.63113   0.00000  Uiso   1.00
C161   C     0.36638   0.19483   0.77867   0.00000  Uiso   1.00
H162   H     0.28716   0.04544   0.62211   0.00000  Uiso   1.00
H163   H     0.20571   0.06357   0.54535   0.00000  Uiso   1.00
H164   H     0.34309   0.97839   0.48366   0.00000  Uiso   1.00
H165   H     0.30664   0.08300   0.86008   0.00000  Uiso   1.00
H166   H     0.12500   0.10154   0.42428   0.00000  Uiso   1.00
H167   H     0.41468   0.92191   0.29424   0.00000  Uiso   1.00
H168   H     0.33782   0.14252   0.08799   0.00000  Uiso   1.00
H169   H     0.36111   0.18312   0.34528   0.00000  Uiso   1.00
H170   H     0.28371   0.20881   0.25333   0.00000  Uiso   1.00
H171   H     0.42109   0.12362   0.19164   0.00000  Uiso   1.00
H172   H     0.38464   0.22824   0.56805   0.00000  Uiso   1.00
H173   H     0.18831   0.21941   0.18726   0.00000  Uiso   1.00
H174   H     0.47800   0.03979   0.05722   0.00000  Uiso   1.00
H175   H     0.40113   0.26040   0.85097   0.00000  Uiso   1.00
O176   O     0.10441   0.17488   0.25024   0.00000  Uiso   1.00
O177   O     0.48447   0.93922   0.07965   0.00000  Uiso   1.00
O178   O     0.38362   0.22865   0.12103   0.00000  Uiso   1.00
N179   N     0.15052   0.12576   0.38114   0.00000  Uiso   1.00
N180   N     0.42135   0.95782   0.25954   0.00000  Uiso   1.00
N181   N     0.34950   0.16406   0.00163   0.00000  Uiso   1.00
N182   N     0.18459   0.18919   0.25360   0.00000  Uiso   1.00
N183   N     0.45542   0.02125   0.13201   0.00000  Uiso   1.00
N184   N     0.38357   0.22749   0.87409   0.00000  Uiso   1.00
C185   C     0.80410   0.42302   0.05869   0.00000  Uiso   1.00
C186   C     0.77010   0.39407   0.97861   0.00000  Uiso   1.00
C187   C     0.72254   0.40507   0.98230   0.00000  Uiso   1.00
C188   C     0.69747   0.37408   0.90155   0.00000  Uiso   1.00
C189   C     0.64136   0.33531   0.78953   0.00000  Uiso   1.00
C190   C     0.84474   0.44036   0.94508   0.00000  Uiso   1.00
C191   C     0.85993   0.49027   0.92059   0.00000  Uiso   1.00
C192   C     0.89770   0.49824   0.81162   0.00000  Uiso   1.00
C193   C     0.95750   0.53133   0.64762   0.00000  Uiso   1.00
C194   C     0.82493   0.38351   0.14959   0.00000  Uiso   1.00
C195   C     0.82348   0.38564   0.29707   0.00000  Uiso   1.00
C196   C     0.84458   0.34576   0.36029   0.00000  Uiso   1.00
C197   C     0.87362   0.29059   0.51383   0.00000  Uiso   1.00
C198   C     0.84417   0.34843   0.90871   0.00000  Uiso   1.00
C199   C     0.79186   0.35355   0.89714   0.00000  Uiso   1.00
C200   C     0.76686   0.32254   0.81636   0.00000  Uiso   1.00
C201   C     0.71927   0.33349   0.81994   0.00000  Uiso   1.00
C202   C     0.86650   0.39984   0.86361   0.00000  Uiso   1.00
C203   C     0.90426   0.40774   0.75466   0.00000  Uiso   1.00
C204   C     0.91950   0.45766   0.73001   0.00000  Uiso   1.00
C205   C     0.84669   0.34300   0.06813   0.00000  Uiso   1.00
C206   C     0.86780   0.30311   0.13113   0.00000  Uiso   1.00
C207   C     0.86638   0.30517   0.27867   0.00000  Uiso   1.00
H208   H     0.78716   0.45456   0.12211   0.00000  Uiso   1.00
H209   H     0.70571   0.43643   0.04535   0.00000  Uiso   1.00
H210   H     0.84309   0.52161   0.98366   0.00000  Uiso   1.00
H211   H     0.80664   0.41700   0.36008   0.00000  Uiso   1.00
H212   H     0.62500   0.39846   0.92428   0.00000  Uiso   1.00
H213   H     0.91468   0.57809   0.79424   0.00000  Uiso   1.00
H214   H     0.83782   0.35748   0.58799   0.00000  Uiso   1.00
H215   H     0.86111   0.31688   0.84528   0.00000  Uiso   1.00
H216   H     0.78371   0.29119   0.75333   0.00000  Uiso   1.00
H217   H     0.92109   0.37638   0.69164   0.00000  Uiso   1.00
H218   H     0.88464   0.27176   0.06805   0.00000  Uiso   1.00
H219   H     0.68831   0.28059   0.68726   0.00000  Uiso   1.00
H220   H     0.97800   0.46021   0.55722   0.00000  Uiso   1.00
H221   H     0.90113   0.23960   0.35097   0.00000  Uiso   1.00
O222   O     0.60441   0.32512   0.75024   0.00000  Uiso   1.00
O223   O     0.98447   0.56078   0.57965   0.00000  Uiso   1.00
O224   O     0.88362   0.27135   0.62103   0.00000  Uiso   1.00
N225   N     0.65052   0.37424   0.88114   0.00000  Uiso   1.00
N226   N     0.92135   0.54218   0.75954   0.00000  Uiso   1.00
N227   N     0.84950   0.33594   0.50163   0.00000  Uiso   1.00
N228   N     0.68459   0.31081   0.75360   0.00000  Uiso   1.00
N229   N     0.95542   0.47875   0.63201   0.00000  Uiso   1.00
N230   N     0.88357   0.27251   0.37409   0.00000  Uiso   1.00
C231   C     0.30410   0.92302   0.05869   0.00000  Uiso   1.00
C232   C     0.27010   0.89407   0.97861   0.00000  Uiso   1.00
C233   C     0.22254   0.90507   0.98230   0.00000  Uiso   1.00
C234   C     0.19747   0.87408   0.90155   0.00000  Uiso   1.00
C235   C     0.14136   0.83531   0.78953   0.00000  Uiso   1.00
C236   C     0.34474   0.94036   0.94508   0.00000  Uiso   1.00
C237   C     0.35993   0.99027   0.92059   0.00000  Uiso   1.00
C238   C     0.39770   0.99824   0.81162   0.00000  Uiso   1.00
C239   C     0.45750   0.03133   0.64762   0.00000  Uiso   1.00
C240   C     0.32493   0.88351   0.14959   0.00000  Uiso   1.00
C241   C     0.32348   0.88564   0.29707   0.00000  Uiso   1.00
C242   C     0.34458   0.84576   0.36029   0.00000  Uiso   1.00
C243   C     0.37362   0.79059   0.51383   0.00000  Uiso   1.00
C244   C     0.34417   0.84843   0.90871   0.00000  Uiso   1.00
C245   C     0.29186   0.85355   0.89714   0.00000  Uiso   1.00
C246   C     0.26686   0.82254   0.81636   0.00000  Uiso   1.00
C247   C     0.21927   0.83349   0.81994   0.00000  Uiso   1.00
C248   C     0.36650   0.89984   0.86361   0.00000  Uiso   1.00
C249   C     0.40426   0.90774   0.75466   0.00000  Uiso   1.00
C250   C     0.41950   0.95766   0.73001   0.00000  Uiso   1.00
C251   C     0.34669   0.84300   0.06813   0.00000  Uiso   1.00
C252   C     0.36780   0.80311   0.13113   0.00000  Uiso   1.00
C253   C     0.36638   0.80517   0.27867   0.00000  Uiso   1.00
H254   H     0.28716   0.95456   0.12211   0.00000  Uiso   1.00
H255   H     0.20571   0.93643   0.04535   0.00000  Uiso   1.00
H256   H     0.34309   0.02161   0.98366   0.00000  Uiso   1.00
H257   H     0.30664   0.91700   0.36008   0.00000  Uiso   1.00
H258   H     0.12500   0.89846   0.92428   0.00000  Uiso   1.00
H259   H     0.41468   0.07809   0.79424   0.00000  Uiso   1.00
H260   H     0.33782   0.85748   0.58799   0.00000  Uiso   1.00
H261   H     0.36111   0.81688   0.84528   0.00000  Uiso   1.00
H262   H     0.28371   0.79119   0.75333   0.00000  Uiso   1.00
H263   H     0.42109   0.87638   0.69164   0.00000  Uiso   1.00
H264   H     0.38464   0.77176   0.06805   0.00000  Uiso   1.00
H265   H     0.18831   0.78059   0.68726   0.00000  Uiso   1.00
H266   H     0.47800   0.96021   0.55722   0.00000  Uiso   1.00
H267   H     0.40113   0.73960   0.35097   0.00000  Uiso   1.00
O268   O     0.10441   0.82512   0.75024   0.00000  Uiso   1.00
O269   O     0.48447   0.06078   0.57965   0.00000  Uiso   1.00
O270   O     0.38362   0.77135   0.62103   0.00000  Uiso   1.00
N271   N     0.15052   0.87424   0.88114   0.00000  Uiso   1.00
N272   N     0.42135   0.04218   0.75954   0.00000  Uiso   1.00
N273   N     0.34950   0.83594   0.50163   0.00000  Uiso   1.00
N274   N     0.18459   0.81081   0.75360   0.00000  Uiso   1.00
N275   N     0.45542   0.97875   0.63201   0.00000  Uiso   1.00
N276   N     0.38357   0.77251   0.37409   0.00000  Uiso   1.00
C277   C     0.19590   0.42302   0.44131   0.00000  Uiso   1.00
C278   C     0.22990   0.39407   0.52139   0.00000  Uiso   1.00
C279   C     0.27746   0.40507   0.51770   0.00000  Uiso   1.00
C280   C     0.30253   0.37408   0.59845   0.00000  Uiso   1.00
C281   C     0.35864   0.33531   0.71047   0.00000  Uiso   1.00
C282   C     0.15526   0.44036   0.55492   0.00000  Uiso   1.00
C283   C     0.14007   0.49027   0.57941   0.00000  Uiso   1.00
C284   C     0.10230   0.49824   0.68838   0.00000  Uiso   1.00
C285   C     0.04250   0.53133   0.85238   0.00000  Uiso   1.00
C286   C     0.17507   0.38351   0.35041   0.00000  Uiso   1.00
C287   C     0.17652   0.38564   0.20293   0.00000  Uiso   1.00
C288   C     0.15542   0.34576   0.13971   0.00000  Uiso   1.00
C289   C     0.12638   0.29059   0.98617   0.00000  Uiso   1.00
C290   C     0.15583   0.34843   0.59129   0.00000  Uiso   1.00
C291   C     0.20814   0.35355   0.60286   0.00000  Uiso   1.00
C292   C     0.23314   0.32254   0.68364   0.00000  Uiso   1.00
C293   C     0.28073   0.33349   0.68006   0.00000  Uiso   1.00
C294   C     0.13350   0.39984   0.63639   0.00000  Uiso   1.00
C295   C     0.09574   0.40774   0.74534   0.00000  Uiso   1.00
C296   C     0.08050   0.45766   0.76999   0.00000  Uiso   1.00
C297   C     0.15331   0.34300   0.43187   0.00000  Uiso   1.00
C298   C     0.13220   0.30311   0.36887   0.00000  Uiso   1.00
C299   C     0.13362   0.30517   0.22133   0.00000  Uiso   1.00
H300   H     0.21284   0.45456   0.37789   0.00000  Uiso   1.00
H301   H     0.29429   0.43643   0.45465   0.00000  Uiso   1.00
H302   H     0.15691   0.52161   0.51634   0.00000  Uiso   1.00
H303   H     0.19336   0.41700   0.13992   0.00000  Uiso   1.00
H304   H     0.37500   0.39846   0.57572   0.00000  Uiso   1.00
H305   H     0.08532   0.57809   0.70576   0.00000  Uiso   1.00
H306   H     0.16218   0.35748   0.91201   0.00000  Uiso   1.00
H307   H     0.13889   0.31688   0.65472   0.00000  Uiso   1.00
H308   H     0.21629   0.29119   0.74667   0.00000  Uiso   1.00
H309   H     0.07891   0.37638   0.80836   0.00000  Uiso   1.00
H310   H     0.11536   0.27176   0.43195   0.00000  Uiso   1.00
H311   H     0.31169   0.28059   0.81274   0.00000  Uiso   1.00
H312   H     0.02200   0.46021   0.94278   0.00000  Uiso   1.00
H313   H     0.09887   0.23960   0.14903   0.00000  Uiso   1.00
O314   O     0.39559   0.32512   0.74976   0.00000  Uiso   1.00
O315   O     0.01553   0.56078   0.92035   0.00000  Uiso   1.00
O316   O     0.11638   0.27135   0.87897   0.00000  Uiso   1.00
N317   N     0.34948   0.37424   0.61886   0.00000  Uiso   1.00
N318   N     0.07865   0.54218   0.74046   0.00000  Uiso   1.00
N319   N     0.15050   0.33594   0.99837   0.00000  Uiso   1.00
N320   N     0.31541   0.31081   0.74640   0.00000  Uiso   1.00
N321   N     0.04458   0.47875   0.86799   0.00000  Uiso   1.00
N322   N     0.11643   0.27251   0.12591   0.00000  Uiso   1.00
C323   C     0.69590   0.92302   0.44131   0.00000  Uiso   1.00
C324   C     0.72990   0.89407   0.52139   0.00000  Uiso   1.00
C325   C     0.77746   0.90507   0.51770   0.00000  Uiso   1.00
C326   C     0.80253   0.87408   0.59845   0.00000  Uiso   1.00
C327   C     0.85864   0.83531   0.71047   0.00000  Uiso   1.00
C328   C     0.65526   0.94036   0.55492   0.00000  Uiso   1.00
C329   C     0.64007   0.99027   0.57941   0.00000  Uiso   1.00
C330   C     0.60230   0.99824   0.68838   0.00000  Uiso   1.00
C331   C     0.54250   0.03133   0.85238   0.00000  Uiso   1.00
C332   C     0.67507   0.88351   0.35041   0.00000  Uiso   1.00
C333   C     0.67652   0.88564   0.20293   0.00000  Uiso   1.00
C334   C     0.65542   0.84576   0.13971   0.00000  Uiso   1.00
C335   C     0.62638   0.79059   0.98617   0.00000  Uiso   1.00
C336   C     0.65583   0.84843   0.59129   0.00000  Uiso   1.00
C337   C     0.70814   0.85355   0.60286   0.00000  Uiso   1.00
C338   C     0.73314   0.82254   0.68364   0.00000  Uiso   1.00
C339   C     0.78073   0.83349   0.68006   0.00000  Uiso   1.00
C340   C     0.63350   0.89984   0.63639   0.00000  Uiso   1.00
C341   C     0.59574   0.90774   0.74534   0.00000  Uiso   1.00
C342   C     0.58050   0.95766   0.76999   0.00000  Uiso   1.00
C343   C     0.65331   0.84300   0.43187   0.00000  Uiso   1.00
C344   C     0.63220   0.80311   0.36887   0.00000  Uiso   1.00
C345   C     0.63362   0.80517   0.22133   0.00000  Uiso   1.00
H346   H     0.71284   0.95456   0.37789   0.00000  Uiso   1.00
H347   H     0.79429   0.93643   0.45465   0.00000  Uiso   1.00
H348   H     0.65691   0.02161   0.51634   0.00000  Uiso   1.00
H349   H     0.69336   0.91700   0.13992   0.00000  Uiso   1.00
H350   H     0.87500   0.89846   0.57572   0.00000  Uiso   1.00
H351   H     0.58532   0.07809   0.70576   0.00000  Uiso   1.00
H352   H     0.66218   0.85748   0.91201   0.00000  Uiso   1.00
H353   H     0.63889   0.81688   0.65472   0.00000  Uiso   1.00
H354   H     0.71629   0.79119   0.74667   0.00000  Uiso   1.00
H355   H     0.57891   0.87638   0.80836   0.00000  Uiso   1.00
H356   H     0.61536   0.77176   0.43195   0.00000  Uiso   1.00
H357   H     0.81169   0.78059   0.81274   0.00000  Uiso   1.00
H358   H     0.52200   0.96021   0.94278   0.00000  Uiso   1.00
H359   H     0.59887   0.73960   0.14903   0.00000  Uiso   1.00
O360   O     0.89559   0.82512   0.74976   0.00000  Uiso   1.00
O361   O     0.51553   0.06078   0.92035   0.00000  Uiso   1.00
O362   O     0.61638   0.77135   0.87897   0.00000  Uiso   1.00
N363   N     0.84948   0.87424   0.61886   0.00000  Uiso   1.00
N364   N     0.57865   0.04218   0.74046   0.00000  Uiso   1.00
N365   N     0.65050   0.83594   0.99837   0.00000  Uiso   1.00
N366   N     0.81541   0.81081   0.74640   0.00000  Uiso   1.00
N367   N     0.54458   0.97875   0.86799   0.00000  Uiso   1.00
N368   N     0.61643   0.77251   0.12591   0.00000  Uiso   1.00
