data_job_06730
_audit_creation_date              2018-12-19
_audit_creation_method            'Materials Studio'
_symmetry_space_group_name_H-M    'P1'
_symmetry_Int_Tables_number       1
_symmetry_cell_setting            triclinic
loop_
_symmetry_equiv_pos_as_xyz
  x,y,z
_cell_length_a                    21.7208
_cell_length_b                    22.9471
_cell_length_c                    22.9597
_cell_angle_alpha                 78.1259
_cell_angle_beta                  64.5060
_cell_angle_gamma                 64.1504
loop_
_atom_site_label
_atom_site_type_symbol
_atom_site_fract_x
_atom_site_fract_y
_atom_site_fract_z
_atom_site_U_iso_or_equiv
_atom_site_adp_type
_atom_site_occupancy
C1     C     0.89623   0.42201   0.00664   0.00000  Uiso   1.00
C2     C     0.92977   0.42522   0.93307   0.00000  Uiso   1.00
C3     C     0.95063   0.47430   0.89556   0.00000  Uiso   1.00
C4     C     0.98023   0.46831   0.82906   0.00000  Uiso   1.00
C5     C     0.03099   0.48139   0.71908   0.00000  Uiso   1.00
C6     C     0.82280   0.41601   0.02530   0.00000  Uiso   1.00
C7     C     0.75374   0.45734   0.06534   0.00000  Uiso   1.00
C8     C     0.69329   0.44359   0.07648   0.00000  Uiso   1.00
C9     C     0.57800   0.44234   0.10972   0.00000  Uiso   1.00
C10    C     0.94670   0.35771   0.02633   0.00000  Uiso   1.00
C11    C     0.98180   0.35002   0.06725   0.00000  Uiso   1.00
C12    C     0.02565   0.28718   0.07927   0.00000  Uiso   1.00
C13    C     0.10273   0.19541   0.11411   0.00000  Uiso   1.00
C14    C     0.91169   0.32408   0.95525   0.00000  Uiso   1.00
C15    C     0.93816   0.37202   0.90516   0.00000  Uiso   1.00
C16    C     0.96774   0.36595   0.83870   0.00000  Uiso   1.00
C17    C     0.98864   0.41502   0.80110   0.00000  Uiso   1.00
C18    C     0.83119   0.36281   0.99739   0.00000  Uiso   1.00
C19    C     0.77084   0.34899   0.00848   0.00000  Uiso   1.00
C20    C     0.70170   0.39030   0.04852   0.00000  Uiso   1.00
C21    C     0.95510   0.30451   0.99842   0.00000  Uiso   1.00
C22    C     0.99890   0.24167   0.01039   0.00000  Uiso   1.00
C23    C     0.03406   0.23389   0.05131   0.00000  Uiso   1.00
H24    H     0.88969   0.46343   0.02837   0.00000  Uiso   1.00
H25    H     0.94412   0.51547   0.91718   0.00000  Uiso   1.00
H26    H     0.74726   0.49850   0.08694   0.00000  Uiso   1.00
H27    H     0.97529   0.39120   0.08884   0.00000  Uiso   1.00
H28    H     0.00815   0.54971   0.78159   0.00000  Uiso   1.00
H29    H     0.59306   0.51393   0.13955   0.00000  Uiso   1.00
H30    H     0.07390   0.28766   0.14357   0.00000  Uiso   1.00
H31    H     0.91822   0.28266   0.93352   0.00000  Uiso   1.00
H32    H     0.97423   0.32478   0.81712   0.00000  Uiso   1.00
H33    H     0.77736   0.30782   0.98687   0.00000  Uiso   1.00
H34    H     0.00539   0.20051   0.98878   0.00000  Uiso   1.00
H35    H     0.03258   0.39494   0.70038   0.00000  Uiso   1.00
H36    H     0.61748   0.35917   0.05834   0.00000  Uiso   1.00
H37    H     0.09833   0.13289   0.06235   0.00000  Uiso   1.00
O38    O     0.05667   0.50331   0.66613   0.00000  Uiso   1.00
O39    O     0.51208   0.45636   0.13576   0.00000  Uiso   1.00
O40    O     0.14294   0.15949   0.14103   0.00000  Uiso   1.00
N41    N     0.00623   0.50750   0.77845   0.00000  Uiso   1.00
N42    N     0.61814   0.47406   0.11311   0.00000  Uiso   1.00
N43    N     0.06767   0.26251   0.11689   0.00000  Uiso   1.00
N44    N     0.01937   0.42422   0.73475   0.00000  Uiso   1.00
N45    N     0.63128   0.39078   0.06941   0.00000  Uiso   1.00
N46    N     0.08082   0.17923   0.07318   0.00000  Uiso   1.00
C47    C     0.27330   0.82924   0.19945   0.00000  Uiso   1.00
C48    C     0.29220   0.79748   0.25812   0.00000  Uiso   1.00
C49    C     0.35798   0.78411   0.26418   0.00000  Uiso   1.00
C50    C     0.36455   0.75486   0.32168   0.00000  Uiso   1.00
C51    C     0.40262   0.70784   0.40522   0.00000  Uiso   1.00
C52    C     0.25439   0.78233   0.17855   0.00000  Uiso   1.00
C53    C     0.28836   0.75623   0.11771   0.00000  Uiso   1.00
C54    C     0.26309   0.71424   0.10822   0.00000  Uiso   1.00
C55    C     0.24241   0.64374   0.06821   0.00000  Uiso   1.00
C56    C     0.20115   0.88860   0.22427   0.00000  Uiso   1.00
C57    C     0.19035   0.95185   0.20186   0.00000  Uiso   1.00
C58    C     0.12025   0.99932   0.23086   0.00000  Uiso   1.00
C59    C     0.01691   0.09382   0.26184   0.00000  Uiso   1.00
C60    C     0.16801   0.80107   0.29078   0.00000  Uiso   1.00
C61    C     0.23501   0.78218   0.30772   0.00000  Uiso   1.00
C62    C     0.24149   0.75295   0.36523   0.00000  Uiso   1.00
C63    C     0.30726   0.73954   0.37138   0.00000  Uiso   1.00
C64    C     0.19720   0.76703   0.22815   0.00000  Uiso   1.00
C65    C     0.17187   0.72507   0.21875   0.00000  Uiso   1.00
C66    C     0.20580   0.69891   0.15792   0.00000  Uiso   1.00
C67    C     0.14396   0.87330   0.27388   0.00000  Uiso   1.00
C68    C     0.07386   0.92069   0.30291   0.00000  Uiso   1.00
C69    C     0.06296   0.98400   0.28056   0.00000  Uiso   1.00
H70    H     0.31782   0.84114   0.16083   0.00000  Uiso   1.00
H71    H     0.40222   0.79595   0.22578   0.00000  Uiso   1.00
H72    H     0.33261   0.76808   0.07933   0.00000  Uiso   1.00
H73    H     0.23461   0.96367   0.16347   0.00000  Uiso   1.00
H74    H     0.47059   0.73907   0.31966   0.00000  Uiso   1.00
H75    H     0.32379   0.68033   0.01085   0.00000  Uiso   1.00
H76    H     0.11715   0.09276   0.18828   0.00000  Uiso   1.00
H77    H     0.12348   0.78916   0.32940   0.00000  Uiso   1.00
H78    H     0.19722   0.74112   0.40361   0.00000  Uiso   1.00
H79    H     0.12761   0.71325   0.25715   0.00000  Uiso   1.00
H80    H     0.02962   0.90883   0.34130   0.00000  Uiso   1.00
H81    H     0.30421   0.69457   0.46399   0.00000  Uiso   1.00
H82    H     0.15740   0.63583   0.15517   0.00000  Uiso   1.00
H83    H     0.95077   0.04826   0.33262   0.00000  Uiso   1.00
O84    O     0.43942   0.68613   0.43759   0.00000  Uiso   1.00
O85    O     0.24682   0.60907   0.03243   0.00000  Uiso   1.00
O86    O     0.97571   0.15017   0.26523   0.00000  Uiso   1.00
N87    N     0.42131   0.73520   0.34345   0.00000  Uiso   1.00
N88    N     0.28406   0.68027   0.05473   0.00000  Uiso   1.00
N89    N     0.09087   0.06586   0.22061   0.00000  Uiso   1.00
N90    N     0.33178   0.71126   0.42111   0.00000  Uiso   1.00
N91    N     0.19453   0.65633   0.13239   0.00000  Uiso   1.00
N92    N     0.00134   0.04192   0.29827   0.00000  Uiso   1.00
C93    C     0.90203   0.64944   0.40138   0.00000  Uiso   1.00
C94    C     0.92698   0.57685   0.41647   0.00000  Uiso   1.00
C95    C     0.99990   0.53273   0.40116   0.00000  Uiso   1.00
C96    C     0.01117   0.46845   0.41909   0.00000  Uiso   1.00
C97    C     0.05898   0.35867   0.43761   0.00000  Uiso   1.00
C98    C     0.85489   0.66440   0.36236   0.00000  Uiso   1.00
C99    C     0.86719   0.69390   0.30156   0.00000  Uiso   1.00
C100   C     0.81777   0.70331   0.27395   0.00000  Uiso   1.00
C101   C     0.75363   0.72950   0.20848   0.00000  Uiso   1.00
C102   C     0.84907   0.68260   0.46581   0.00000  Uiso   1.00
C103   C     0.85646   0.72742   0.49198   0.00000  Uiso   1.00
C104   C     0.80212   0.75218   0.55146   0.00000  Uiso   1.00
C105   C     0.72894   0.80664   0.64660   0.00000  Uiso   1.00
C106   C     0.79238   0.61372   0.46047   0.00000  Uiso   1.00
C107   C     0.86742   0.55745   0.44856   0.00000  Uiso   1.00
C108   C     0.87859   0.49321   0.46653   0.00000  Uiso   1.00
C109   C     0.95151   0.44901   0.45125   0.00000  Uiso   1.00
C110   C     0.79534   0.64500   0.39445   0.00000  Uiso   1.00
C111   C     0.74589   0.65438   0.36693   0.00000  Uiso   1.00
C112   C     0.75811   0.68388   0.30611   0.00000  Uiso   1.00
C113   C     0.78951   0.66320   0.49790   0.00000  Uiso   1.00
C114   C     0.73515   0.68790   0.55735   0.00000  Uiso   1.00
C115   C     0.74246   0.73274   0.58361   0.00000  Uiso   1.00
H116   H     0.94839   0.66455   0.37640   0.00000  Uiso   1.00
H117   H     0.04597   0.54777   0.37631   0.00000  Uiso   1.00
H118   H     0.91328   0.70891   0.27674   0.00000  Uiso   1.00
H119   H     0.90255   0.74243   0.46713   0.00000  Uiso   1.00
H120   H     0.12790   0.40973   0.39036   0.00000  Uiso   1.00
H121   H     0.84810   0.74953   0.18041   0.00000  Uiso   1.00
H122   H     0.82547   0.82021   0.58188   0.00000  Uiso   1.00
H123   H     0.74601   0.59862   0.48546   0.00000  Uiso   1.00
H124   H     0.83249   0.47821   0.49137   0.00000  Uiso   1.00
H125   H     0.69980   0.63936   0.39179   0.00000  Uiso   1.00
H126   H     0.68907   0.67287   0.58217   0.00000  Uiso   1.00
H127   H     0.95463   0.35328   0.48373   0.00000  Uiso   1.00
H128   H     0.67483   0.69308   0.27378   0.00000  Uiso   1.00
H129   H     0.65220   0.76376   0.67525   0.00000  Uiso   1.00
O130   O     0.10180   0.30349   0.43895   0.00000  Uiso   1.00
O131   O     0.73471   0.74930   0.16350   0.00000  Uiso   1.00
O132   O     0.70503   0.84203   0.69022   0.00000  Uiso   1.00
N133   N     0.07525   0.41297   0.41154   0.00000  Uiso   1.00
N134   N     0.81366   0.73065   0.21524   0.00000  Uiso   1.00
N135   N     0.79250   0.79675   0.59057   0.00000  Uiso   1.00
N136   N     0.98202   0.38259   0.46178   0.00000  Uiso   1.00
N137   N     0.72043   0.70028   0.26548   0.00000  Uiso   1.00
N138   N     0.69926   0.76637   0.64082   0.00000  Uiso   1.00
C139   C     0.41260   0.06533   0.38800   0.00000  Uiso   1.00
C140   C     0.44658   0.99170   0.38415   0.00000  Uiso   1.00
C141   C     0.45157   0.94833   0.43551   0.00000  Uiso   1.00
C142   C     0.48458   0.88286   0.42203   0.00000  Uiso   1.00
C143   C     0.53320   0.77176   0.42559   0.00000  Uiso   1.00
C144   C     0.35240   0.08934   0.36102   0.00000  Uiso   1.00
C145   C     0.27821   0.12807   0.39293   0.00000  Uiso   1.00
C146   C     0.23195   0.14481   0.35998   0.00000  Uiso   1.00
C147   C     0.13437   0.18534   0.32761   0.00000  Uiso   1.00
C148   C     0.47290   0.08814   0.33984   0.00000  Uiso   1.00
C149   C     0.50003   0.12588   0.35393   0.00000  Uiso   1.00
C150   C     0.55521   0.14161   0.30315   0.00000  Uiso   1.00
C151   C     0.64473   0.18028   0.23789   0.00000  Uiso   1.00
C152   C     0.46236   0.02619   0.27273   0.00000  Uiso   1.00
C153   C     0.47360   0.97044   0.32154   0.00000  Uiso   1.00
C154   C     0.50662   0.90502   0.30798   0.00000  Uiso   1.00
C155   C     0.51166   0.86156   0.35932   0.00000  Uiso   1.00
C156   C     0.37942   0.06808   0.29841   0.00000  Uiso   1.00
C157   C     0.33327   0.08477   0.26541   0.00000  Uiso   1.00
C158   C     0.25903   0.12351   0.29726   0.00000  Uiso   1.00
C159   C     0.49993   0.06688   0.27723   0.00000  Uiso   1.00
C160   C     0.55508   0.08257   0.22641   0.00000  Uiso   1.00
C161   C     0.58228   0.12032   0.24043   0.00000  Uiso   1.00
H162   H     0.39155   0.08189   0.43674   0.00000  Uiso   1.00
H163   H     0.43064   0.96480   0.48395   0.00000  Uiso   1.00
H164   H     0.25732   0.14452   0.44138   0.00000  Uiso   1.00
H165   H     0.47910   0.14232   0.40239   0.00000  Uiso   1.00
H166   H     0.48587   0.82561   0.50869   0.00000  Uiso   1.00
H167   H     0.12041   0.20458   0.41891   0.00000  Uiso   1.00
H168   H     0.58808   0.19994   0.33670   0.00000  Uiso   1.00
H169   H     0.48340   0.00964   0.22399   0.00000  Uiso   1.00
H170   H     0.52753   0.88859   0.25953   0.00000  Uiso   1.00
H171   H     0.35420   0.06831   0.21696   0.00000  Uiso   1.00
H172   H     0.57598   0.06611   0.17797   0.00000  Uiso   1.00
H173   H     0.56451   0.76375   0.32655   0.00000  Uiso   1.00
H174   H     0.19905   0.14273   0.23677   0.00000  Uiso   1.00
H175   H     0.66672   0.13809   0.15455   0.00000  Uiso   1.00
O176   O     0.55254   0.71635   0.44484   0.00000  Uiso   1.00
O177   O     0.07308   0.21356   0.32705   0.00000  Uiso   1.00
O178   O     0.68665   0.20747   0.21919   0.00000  Uiso   1.00
N179   N     0.49834   0.82766   0.46095   0.00000  Uiso   1.00
N180   N     0.15665   0.18197   0.37701   0.00000  Uiso   1.00
N181   N     0.59387   0.17765   0.30014   0.00000  Uiso   1.00
N182   N     0.54065   0.79438   0.36293   0.00000  Uiso   1.00
N183   N     0.19896   0.14869   0.27900   0.00000  Uiso   1.00
N184   N     0.63618   0.14437   0.20213   0.00000  Uiso   1.00
C185   C     0.58173   0.31643   0.82725   0.00000  Uiso   1.00
C186   C     0.53000   0.38189   0.85907   0.00000  Uiso   1.00
C187   C     0.54604   0.43666   0.84565   0.00000  Uiso   1.00
C188   C     0.49133   0.49181   0.87996   0.00000  Uiso   1.00
C189   C     0.42139   0.59341   0.92234   0.00000  Uiso   1.00
C190   C     0.53915   0.30065   0.79875   0.00000  Uiso   1.00
C191   C     0.56288   0.28712   0.73460   0.00000  Uiso   1.00
C192   C     0.51587   0.27388   0.71814   0.00000  Uiso   1.00
C193   C     0.46014   0.24931   0.66687   0.00000  Uiso   1.00
C194   C     0.58990   0.26714   0.88204   0.00000  Uiso   1.00
C195   C     0.65631   0.22541   0.88794   0.00000  Uiso   1.00
C196   C     0.65203   0.18395   0.94160   0.00000  Uiso   1.00
C197   C     0.67512   0.10735   0.01966   0.00000  Uiso   1.00
C198   C     0.45605   0.31699   0.91206   0.00000  Uiso   1.00
C199   C     0.46174   0.38219   0.90513   0.00000  Uiso   1.00
C200   C     0.40699   0.43727   0.93948   0.00000  Uiso   1.00
C201   C     0.42295   0.49212   0.92611   0.00000  Uiso   1.00
C202   C     0.47089   0.30095   0.84481   0.00000  Uiso   1.00
C203   C     0.42383   0.28773   0.82843   0.00000  Uiso   1.00
C204   C     0.44748   0.27418   0.76429   0.00000  Uiso   1.00
C205   C     0.52164   0.26744   0.92811   0.00000  Uiso   1.00
C206   C     0.51726   0.22603   0.98177   0.00000  Uiso   1.00
C207   C     0.58365   0.18425   0.98774   0.00000  Uiso   1.00
H208   H     0.63487   0.31619   0.79138   0.00000  Uiso   1.00
H209   H     0.59887   0.43640   0.80999   0.00000  Uiso   1.00
H210   H     0.61571   0.28688   0.69897   0.00000  Uiso   1.00
H211   H     0.70912   0.22519   0.85228   0.00000  Uiso   1.00
H212   H     0.52884   0.56982   0.85092   0.00000  Uiso   1.00
H213   H     0.56436   0.25452   0.61682   0.00000  Uiso   1.00
H214   H     0.76135   0.12443   0.94011   0.00000  Uiso   1.00
H215   H     0.40290   0.31722   0.94792   0.00000  Uiso   1.00
H216   H     0.35417   0.43749   0.97512   0.00000  Uiso   1.00
H217   H     0.37101   0.28797   0.86410   0.00000  Uiso   1.00
H218   H     0.46443   0.22628   0.01741   0.00000  Uiso   1.00
H219   H     0.33024   0.57070   0.98495   0.00000  Uiso   1.00
H220   H     0.36576   0.25540   0.75085   0.00000  Uiso   1.00
H221   H     0.56274   0.12532   0.07413   0.00000  Uiso   1.00
O222   O     0.40166   0.64937   0.93299   0.00000  Uiso   1.00
O223   O     0.44827   0.23569   0.62586   0.00000  Uiso   1.00
O224   O     0.70671   0.06503   0.05000   0.00000  Uiso   1.00
N225   N     0.48880   0.55352   0.87874   0.00000  Uiso   1.00
N226   N     0.52200   0.25874   0.65987   0.00000  Uiso   1.00
N227   N     0.70616   0.13711   0.96210   0.00000  Uiso   1.00
N228   N     0.38193   0.55399   0.95086   0.00000  Uiso   1.00
N229   N     0.41513   0.25922   0.73199   0.00000  Uiso   1.00
N230   N     0.59930   0.13759   0.03422   0.00000  Uiso   1.00
C231   C     0.38804   0.50039   0.55737   0.00000  Uiso   1.00
C232   C     0.41207   0.51681   0.48528   0.00000  Uiso   1.00
C233   C     0.48472   0.50126   0.44113   0.00000  Uiso   1.00
C234   C     0.49511   0.52056   0.37734   0.00000  Uiso   1.00
C235   C     0.54157   0.54090   0.26826   0.00000  Uiso   1.00
C236   C     0.34046   0.46221   0.57149   0.00000  Uiso   1.00
C237   C     0.35289   0.40077   0.59985   0.00000  Uiso   1.00
C238   C     0.30300   0.37413   0.60864   0.00000  Uiso   1.00
C239   C     0.23825   0.30973   0.63346   0.00000  Uiso   1.00
C240   C     0.33572   0.56460   0.59152   0.00000  Uiso   1.00
C241   C     0.34416   0.58924   0.63672   0.00000  Uiso   1.00
C242   C     0.29026   0.64880   0.66239   0.00000  Uiso   1.00
C243   C     0.21815   0.74337   0.71830   0.00000  Uiso   1.00
C244   C     0.27731   0.56233   0.52260   0.00000  Uiso   1.00
C245   C     0.35192   0.55044   0.46639   0.00000  Uiso   1.00
C246   C     0.36221   0.56978   0.40266   0.00000  Uiso   1.00
C247   C     0.43486   0.55427   0.35842   0.00000  Uiso   1.00
C248   C     0.28031   0.49585   0.55261   0.00000  Uiso   1.00
C249   C     0.23038   0.46929   0.56137   0.00000  Uiso   1.00
C250   C     0.24274   0.40783   0.58972   0.00000  Uiso   1.00
C251   C     0.27557   0.59824   0.57263   0.00000  Uiso   1.00
C252   C     0.22165   0.65777   0.59824   0.00000  Uiso   1.00
C253   C     0.23000   0.68250   0.64347   0.00000  Uiso   1.00
H254   H     0.43486   0.47420   0.57208   0.00000  Uiso   1.00
H255   H     0.53125   0.47522   0.45576   0.00000  Uiso   1.00
H256   H     0.39944   0.37475   0.61446   0.00000  Uiso   1.00
H257   H     0.39071   0.56320   0.65132   0.00000  Uiso   1.00
H258   H     0.61159   0.49116   0.31847   0.00000  Uiso   1.00
H259   H     0.33364   0.27933   0.65312   0.00000  Uiso   1.00
H260   H     0.31523   0.67670   0.73085   0.00000  Uiso   1.00
H261   H     0.23048   0.58852   0.50790   0.00000  Uiso   1.00
H262   H     0.31565   0.59581   0.38805   0.00000  Uiso   1.00
H263   H     0.18384   0.49534   0.54675   0.00000  Uiso   1.00
H264   H     0.17511   0.68379   0.58361   0.00000  Uiso   1.00
H265   H     0.43660   0.58904   0.26352   0.00000  Uiso   1.00
H266   H     0.15865   0.37720   0.59816   0.00000  Uiso   1.00
H267   H     0.14024   0.77458   0.67589   0.00000  Uiso   1.00
O268   O     0.58381   0.54281   0.21331   0.00000  Uiso   1.00
O269   O     0.21915   0.26490   0.65236   0.00000  Uiso   1.00
O270   O     0.19499   0.78625   0.75434   0.00000  Uiso   1.00
N271   N     0.55872   0.51321   0.32199   0.00000  Uiso   1.00
N272   N     0.29886   0.31515   0.63485   0.00000  Uiso   1.00
N273   N     0.28163   0.68666   0.70754   0.00000  Uiso   1.00
N274   N     0.46456   0.56587   0.29242   0.00000  Uiso   1.00
N275   N     0.20470   0.36782   0.60528   0.00000  Uiso   1.00
N276   N     0.18747   0.73932   0.67797   0.00000  Uiso   1.00
C277   C     0.24816   0.46751   0.79750   0.00000  Uiso   1.00
C278   C     0.21993   0.45707   0.87057   0.00000  Uiso   1.00
C279   C     0.20765   0.40277   0.90363   0.00000  Uiso   1.00
C280   C     0.18175   0.40251   0.97047   0.00000  Uiso   1.00
C281   C     0.13994   0.37834   0.07898   0.00000  Uiso   1.00
C282   C     0.31763   0.48048   0.77832   0.00000  Uiso   1.00
C283   C     0.38750   0.44588   0.73380   0.00000  Uiso   1.00
C284   C     0.44384   0.46534   0.72298   0.00000  Uiso   1.00
C285   C     0.55371   0.47755   0.68823   0.00000  Uiso   1.00
C286   C     0.19037   0.53082   0.78467   0.00000  Uiso   1.00
C287   C     0.15324   0.53855   0.74547   0.00000  Uiso   1.00
C288   C     0.10244   0.60039   0.73998   0.00000  Uiso   1.00
C289   C     0.01471   0.69077   0.71509   0.00000  Uiso   1.00
C290   C     0.22399   0.56360   0.85742   0.00000  Uiso   1.00
C291   C     0.20681   0.50926   0.90312   0.00000  Uiso   1.00
C292   C     0.18091   0.50908   0.96993   0.00000  Uiso   1.00
C293   C     0.16859   0.45480   0.00308   0.00000  Uiso   1.00
C294   C     0.30451   0.53267   0.81086   0.00000  Uiso   1.00
C295   C     0.36076   0.55219   0.80010   0.00000  Uiso   1.00
C296   C     0.43069   0.51762   0.75558   0.00000  Uiso   1.00
C297   C     0.17724   0.58302   0.81722   0.00000  Uiso   1.00
C298   C     0.12650   0.64486   0.81178   0.00000  Uiso   1.00
C299   C     0.08929   0.65268   0.77259   0.00000  Uiso   1.00
H300   H     0.25839   0.42688   0.77215   0.00000  Uiso   1.00
H301   H     0.21782   0.36239   0.87842   0.00000  Uiso   1.00
H302   H     0.39764   0.40550   0.70861   0.00000  Uiso   1.00
H303   H     0.16341   0.49815   0.72029   0.00000  Uiso   1.00
H304   H     0.16709   0.31390   0.01059   0.00000  Uiso   1.00
H305   H     0.54624   0.40481   0.65253   0.00000  Uiso   1.00
H306   H     0.05232   0.60019   0.67715   0.00000  Uiso   1.00
H307   H     0.21377   0.60423   0.88276   0.00000  Uiso   1.00
H308   H     0.17076   0.54948   0.99510   0.00000  Uiso   1.00
H309   H     0.35058   0.59258   0.82530   0.00000  Uiso   1.00
H310   H     0.11635   0.68524   0.83697   0.00000  Uiso   1.00
H311   H     0.12889   0.46574   0.10529   0.00000  Uiso   1.00
H312   H     0.50804   0.55665   0.74723   0.00000  Uiso   1.00
H313   H     0.01413   0.75203   0.77185   0.00000  Uiso   1.00
O314   O     0.12052   0.35059   0.12984   0.00000  Uiso   1.00
O315   O     0.61795   0.46987   0.66007   0.00000  Uiso   1.00
O316   O     0.96994   0.72620   0.69238   0.00000  Uiso   1.00
N317   N     0.16399   0.35716   0.01746   0.00000  Uiso   1.00
N318   N     0.51847   0.44214   0.68270   0.00000  Uiso   1.00
N319   N     0.05672   0.62481   0.70571   0.00000  Uiso   1.00
N320   N     0.14343   0.43886   0.06842   0.00000  Uiso   1.00
N321   N     0.49792   0.52385   0.73366   0.00000  Uiso   1.00
N322   N     0.03616   0.70652   0.75667   0.00000  Uiso   1.00
C323   C     0.06654   0.06391   0.53959   0.00000  Uiso   1.00
C324   C     0.13610   0.03102   0.48126   0.00000  Uiso   1.00
C325   C     0.13837   0.02677   0.42089   0.00000  Uiso   1.00
C326   C     0.20747   0.99471   0.37391   0.00000  Uiso   1.00
C327   C     0.30567   0.94775   0.28136   0.00000  Uiso   1.00
C328   C     0.08086   0.11429   0.56028   0.00000  Uiso   1.00
C329   C     0.03666   0.18005   0.56636   0.00000  Uiso   1.00
C330   C     0.05925   0.21807   0.58590   0.00000  Uiso   1.00
C331   C     0.07165   0.30038   0.61608   0.00000  Uiso   1.00
C332   C     0.06402   0.01258   0.59361   0.00000  Uiso   1.00
C333   C     0.00565   0.99283   0.62772   0.00000  Uiso   1.00
C334   C     0.01406   0.94523   0.67533   0.00000  Uiso   1.00
C335   C     0.00032   0.86962   0.75725   0.00000  Uiso   1.00
C336   C     0.18524   0.01452   0.56350   0.00000  Uiso   1.00
C337   C     0.20057   0.00420   0.49425   0.00000  Uiso   1.00
C338   C     0.26969   0.97213   0.44735   0.00000  Uiso   1.00
C339   C     0.27205   0.96783   0.38693   0.00000  Uiso   1.00
C340   C     0.14532   0.08747   0.57327   0.00000  Uiso   1.00
C341   C     0.16798   0.12540   0.59282   0.00000  Uiso   1.00
C342   C     0.12384   0.19120   0.59892   0.00000  Uiso   1.00
C343   C     0.12849   0.98575   0.60660   0.00000  Uiso   1.00
C344   C     0.13698   0.93818   0.65417   0.00000  Uiso   1.00
C345   C     0.07865   0.91836   0.68835   0.00000  Uiso   1.00
H346   H     0.01635   0.08480   0.52948   0.00000  Uiso   1.00
H347   H     0.08846   0.04754   0.41086   0.00000  Uiso   1.00
H348   H     0.98677   0.20079   0.55631   0.00000  Uiso   1.00
H349   H     0.95577   0.01360   0.61765   0.00000  Uiso   1.00
H350   H     0.19684   0.99443   0.28507   0.00000  Uiso   1.00
H351   H     0.98240   0.31756   0.59178   0.00000  Uiso   1.00
H352   H     0.91704   0.92283   0.72114   0.00000  Uiso   1.00
H353   H     0.23544   0.99364   0.57362   0.00000  Uiso   1.00
H354   H     0.31957   0.95137   0.45742   0.00000  Uiso   1.00
H355   H     0.21788   0.10463   0.60287   0.00000  Uiso   1.00
H356   H     0.18688   0.91743   0.66421   0.00000  Uiso   1.00
H357   H     0.38442   0.91638   0.32286   0.00000  Uiso   1.00
H358   H     0.16998   0.23951   0.62957   0.00000  Uiso   1.00
H359   H     0.10462   0.84478   0.75893   0.00000  Uiso   1.00
O360   O     0.34203   0.92926   0.22673   0.00000  Uiso   1.00
O361   O     0.06068   0.35320   0.62912   0.00000  Uiso   1.00
O362   O     0.97493   0.83532   0.79884   0.00000  Uiso   1.00
N363   N     0.22944   0.98185   0.30992   0.00000  Uiso   1.00
N364   N     0.02896   0.28396   0.59666   0.00000  Uiso   1.00
N365   N     0.96784   0.91493   0.71761   0.00000  Uiso   1.00
N366   N     0.33038   0.93985   0.33025   0.00000  Uiso   1.00
N367   N     0.12989   0.24196   0.61699   0.00000  Uiso   1.00
N368   N     0.06878   0.87293   0.73794   0.00000  Uiso   1.00
C369   C     0.33464   0.35227   0.38805   0.00000  Uiso   1.00
C370   C     0.29754   0.42453   0.37511   0.00000  Uiso   1.00
C371   C     0.22352   0.46368   0.40701   0.00000  Uiso   1.00
C372   C     0.20033   0.52857   0.38810   0.00000  Uiso   1.00
C373   C     0.13527   0.63701   0.37549   0.00000  Uiso   1.00
C374   C     0.39966   0.34396   0.40350   0.00000  Uiso   1.00
C375   C     0.41150   0.31535   0.45925   0.00000  Uiso   1.00
C376   C     0.47428   0.31241   0.46424   0.00000  Uiso   1.00
C377   C     0.56779   0.29572   0.49567   0.00000  Uiso   1.00
C378   C     0.36868   0.31959   0.32368   0.00000  Uiso   1.00
C379   C     0.35449   0.27048   0.31233   0.00000  Uiso   1.00
C380   C     0.39120   0.24701   0.25012   0.00000  Uiso   1.00
C381   C     0.43661   0.19248   0.15763   0.00000  Uiso   1.00
C382   C     0.42507   0.39790   0.29777   0.00000  Uiso   1.00
C383   C     0.34667   0.44932   0.32607   0.00000  Uiso   1.00
C384   C     0.32358   0.51417   0.30711   0.00000  Uiso   1.00
C385   C     0.24954   0.55340   0.33897   0.00000  Uiso   1.00
C386   C     0.44878   0.36874   0.35446   0.00000  Uiso   1.00
C387   C     0.51156   0.36584   0.35936   0.00000  Uiso   1.00
C388   C     0.52349   0.33724   0.41511   0.00000  Uiso   1.00
C389   C     0.41780   0.34438   0.27464   0.00000  Uiso   1.00
C390   C     0.45455   0.32097   0.21244   0.00000  Uiso   1.00
C391   C     0.44041   0.27184   0.20099   0.00000  Uiso   1.00
H392   H     0.29640   0.33297   0.42624   0.00000  Uiso   1.00
H393   H     0.18553   0.44448   0.44496   0.00000  Uiso   1.00
H394   H     0.37348   0.29617   0.49719   0.00000  Uiso   1.00
H395   H     0.31648   0.25131   0.35029   0.00000  Uiso   1.00
H396   H     0.08428   0.57904   0.44411   0.00000  Uiso   1.00
H397   H     0.48060   0.26630   0.55423   0.00000  Uiso   1.00
H398   H     0.36040   0.17170   0.24446   0.00000  Uiso   1.00
H399   H     0.46332   0.41720   0.25958   0.00000  Uiso   1.00
H400   H     0.36161   0.53333   0.26916   0.00000  Uiso   1.00
H401   H     0.54956   0.38502   0.32140   0.00000  Uiso   1.00
H402   H     0.49256   0.34016   0.17450   0.00000  Uiso   1.00
H403   H     0.22719   0.65116   0.30142   0.00000  Uiso   1.00
H404   H     0.62352   0.33842   0.41155   0.00000  Uiso   1.00
H405   H     0.50331   0.24382   0.10178   0.00000  Uiso   1.00
O406   O     0.08582   0.68998   0.38209   0.00000  Uiso   1.00
O407   O     0.60579   0.27967   0.52656   0.00000  Uiso   1.00
O408   O     0.44808   0.15556   0.12016   0.00000  Uiso   1.00
N409   N     0.13187   0.58007   0.40920   0.00000  Uiso   1.00
N410   N     0.50240   0.28769   0.51217   0.00000  Uiso   1.00
N411   N     0.39003   0.19923   0.22257   0.00000  Uiso   1.00
N412   N     0.20877   0.61888   0.33243   0.00000  Uiso   1.00
N413   N     0.57930   0.32650   0.43539   0.00000  Uiso   1.00
N414   N     0.46693   0.23804   0.14579   0.00000  Uiso   1.00
C415   C     0.80246   0.93383   0.42647   0.00000  Uiso   1.00
C416   C     0.78240   0.00654   0.42408   0.00000  Uiso   1.00
C417   C     0.79021   0.04571   0.36880   0.00000  Uiso   1.00
C418   C     0.76871   0.11103   0.37678   0.00000  Uiso   1.00
C419   C     0.74190   0.22009   0.36379   0.00000  Uiso   1.00
C420   C     0.85719   0.90299   0.45978   0.00000  Uiso   1.00
C421   C     0.92788   0.85509   0.43451   0.00000  Uiso   1.00
C422   C     0.96933   0.83324   0.47254   0.00000  Uiso   1.00
C423   C     0.05861   0.78149   0.51498   0.00000  Uiso   1.00
C424   C     0.73211   0.92374   0.47262   0.00000  Uiso   1.00
C425   C     0.69764   0.89327   0.45815   0.00000  Uiso   1.00
C426   C     0.63379   0.88888   0.50700   0.00000  Uiso   1.00
C427   C     0.52887   0.86935   0.56938   0.00000  Uiso   1.00
C428   C     0.75039   0.98019   0.53895   0.00000  Uiso   1.00
C429   C     0.75412   0.03171   0.48518   0.00000  Uiso   1.00
C430   C     0.73260   0.09700   0.49325   0.00000  Uiso   1.00
C431   C     0.74037   0.13626   0.43799   0.00000  Uiso   1.00
C432   C     0.82891   0.92816   0.52087   0.00000  Uiso   1.00
C433   C     0.87026   0.90637   0.55896   0.00000  Uiso   1.00
C434   C     0.94100   0.85846   0.53375   0.00000  Uiso   1.00
C435   C     0.70382   0.94892   0.53372   0.00000  Uiso   1.00
C436   C     0.64002   0.94456   0.58260   0.00000  Uiso   1.00
C437   C     0.60545   0.91410   0.56821   0.00000  Uiso   1.00
H438   H     0.82448   0.91423   0.37890   0.00000  Uiso   1.00
H439   H     0.81211   0.02620   0.32153   0.00000  Uiso   1.00
H440   H     0.94975   0.83561   0.38723   0.00000  Uiso   1.00
H441   H     0.71954   0.87379   0.41087   0.00000  Uiso   1.00
H442   H     0.78594   0.16145   0.28486   0.00000  Uiso   1.00
H443   H     0.07615   0.75955   0.42340   0.00000  Uiso   1.00
H444   H     0.59072   0.84006   0.47325   0.00000  Uiso   1.00
H445   H     0.72837   0.99979   0.58652   0.00000  Uiso   1.00
H446   H     0.71071   0.11647   0.54054   0.00000  Uiso   1.00
H447   H     0.84835   0.92587   0.60624   0.00000  Uiso   1.00
H448   H     0.61815   0.96405   0.62988   0.00000  Uiso   1.00
H449   H     0.70365   0.23471   0.46262   0.00000  Uiso   1.00
H450   H     0.99386   0.83281   0.60116   0.00000  Uiso   1.00
H451   H     0.50842   0.91333   0.65100   0.00000  Uiso   1.00
O452   O     0.73494   0.27329   0.33974   0.00000  Uiso   1.00
O453   O     0.11568   0.74600   0.52151   0.00000  Uiso   1.00
O454   O     0.47880   0.85164   0.58690   0.00000  Uiso   1.00
N455   N     0.76898   0.16268   0.33301   0.00000  Uiso   1.00
N456   N     0.04032   0.78694   0.46253   0.00000  Uiso   1.00
N457   N     0.58649   0.86220   0.50914   0.00000  Uiso   1.00
N458   N     0.72470   0.20210   0.42866   0.00000  Uiso   1.00
N459   N     0.99603   0.82636   0.55818   0.00000  Uiso   1.00
N460   N     0.54220   0.90162   0.60479   0.00000  Uiso   1.00
C461   C     0.55304   0.64376   0.97746   0.00000  Uiso   1.00
C462   C     0.61490   0.58067   0.94584   0.00000  Uiso   1.00
C463   C     0.60604   0.52466   0.94456   0.00000  Uiso   1.00
C464   C     0.66953   0.47209   0.91321   0.00000  Uiso   1.00
C465   C     0.75497   0.37358   0.86854   0.00000  Uiso   1.00
C466   C     0.57547   0.65873   0.02533   0.00000  Uiso   1.00
C467   C     0.53345   0.66837   0.09089   0.00000  Uiso   1.00
C468   C     0.56375   0.68152   0.12644   0.00000  Uiso   1.00
C469   C     0.58795   0.70426   0.20519   0.00000  Uiso   1.00
C470   C     0.55683   0.69617   0.92461   0.00000  Uiso   1.00
C471   C     0.49912   0.73730   0.90549   0.00000  Uiso   1.00
C472   C     0.51372   0.78198   0.85625   0.00000  Uiso   1.00
C473   C     0.50898   0.86285   0.77861   0.00000  Uiso   1.00
C474   C     0.68157   0.65000   0.92403   0.00000  Uiso   1.00
C475   C     0.68472   0.58405   0.91682   0.00000  Uiso   1.00
C476   C     0.74824   0.53155   0.88545   0.00000  Uiso   1.00
C477   C     0.73947   0.47548   0.88413   0.00000  Uiso   1.00
C478   C     0.64528   0.66212   0.99631   0.00000  Uiso   1.00
C479   C     0.67565   0.67526   0.03177   0.00000  Uiso   1.00
C480   C     0.63369   0.68491   0.09737   0.00000  Uiso   1.00
C481   C     0.62664   0.69955   0.89558   0.00000  Uiso   1.00
C482   C     0.64133   0.74419   0.84637   0.00000  Uiso   1.00
C483   C     0.58366   0.78537   0.82718   0.00000  Uiso   1.00
H484   H     0.49869   0.64113   0.00006   0.00000  Uiso   1.00
H485   H     0.55200   0.52205   0.96704   0.00000  Uiso   1.00
H486   H     0.47942   0.66575   0.11333   0.00000  Uiso   1.00
H487   H     0.44510   0.73466   0.92796   0.00000  Uiso   1.00
H488   H     0.64190   0.39152   0.91765   0.00000  Uiso   1.00
H489   H     0.48885   0.69453   0.22612   0.00000  Uiso   1.00
H490   H     0.41648   0.83985   0.83522   0.00000  Uiso   1.00
H491   H     0.73593   0.65264   0.90143   0.00000  Uiso   1.00
H492   H     0.80226   0.53419   0.86299   0.00000  Uiso   1.00
H493   H     0.72968   0.67788   0.00929   0.00000  Uiso   1.00
H494   H     0.69537   0.74680   0.82392   0.00000  Uiso   1.00
H495   H     0.84502   0.40137   0.83320   0.00000  Uiso   1.00
H496   H     0.69197   0.70438   0.14168   0.00000  Uiso   1.00
H497   H     0.61961   0.84970   0.75078   0.00000  Uiso   1.00
O498   O     0.78282   0.31831   0.85194   0.00000  Uiso   1.00
O499   O     0.58201   0.71586   0.25664   0.00000  Uiso   1.00
O500   O     0.48708   0.90651   0.74379   0.00000  Uiso   1.00
N501   N     0.68060   0.41010   0.90304   0.00000  Uiso   1.00
N502   N     0.53751   0.69338   0.19144   0.00000  Uiso   1.00
N503   N     0.46985   0.82926   0.82600   0.00000  Uiso   1.00
N504   N     0.78990   0.41540   0.85760   0.00000  Uiso   1.00
N505   N     0.64681   0.69868   0.14600   0.00000  Uiso   1.00
N506   N     0.57915   0.83456   0.78056   0.00000  Uiso   1.00
C507   C     0.78567   0.50043   0.26367   0.00000  Uiso   1.00
C508   C     0.74016   0.50630   0.33617   0.00000  Uiso   1.00
C509   C     0.66755   0.54975   0.36551   0.00000  Uiso   1.00
C510   C     0.63568   0.54748   0.43247   0.00000  Uiso   1.00
C511   C     0.55903   0.56333   0.53952   0.00000  Uiso   1.00
C512   C     0.85571   0.50910   0.25244   0.00000  Uiso   1.00
C513   C     0.88026   0.55490   0.21138   0.00000  Uiso   1.00
C514   C     0.94567   0.55497   0.20785   0.00000  Uiso   1.00
C515   C     0.04845   0.57514   0.18488   0.00000  Uiso   1.00
C516   C     0.81084   0.43018   0.24814   0.00000  Uiso   1.00
C517   C     0.79767   0.40962   0.20346   0.00000  Uiso   1.00
C518   C     0.82531   0.34325   0.19630   0.00000  Uiso   1.00
C519   C     0.85841   0.24088   0.16665   0.00000  Uiso   1.00
C520   C     0.85818   0.41911   0.33041   0.00000  Uiso   1.00
C521   C     0.77954   0.46213   0.37241   0.00000  Uiso   1.00
C522   C     0.74777   0.45978   0.43934   0.00000  Uiso   1.00
C523   C     0.67513   0.50323   0.46878   0.00000  Uiso   1.00
C524   C     0.89509   0.46493   0.28869   0.00000  Uiso   1.00
C525   C     0.96048   0.46493   0.28521   0.00000  Uiso   1.00
C526   C     0.98512   0.51072   0.24416   0.00000  Uiso   1.00
C527   C     0.85022   0.38600   0.28439   0.00000  Uiso   1.00
C528   C     0.87789   0.31965   0.27729   0.00000  Uiso   1.00
C529   C     0.86477   0.29900   0.23261   0.00000  Uiso   1.00
H530   H     0.75502   0.53482   0.23545   0.00000  Uiso   1.00
H531   H     0.63710   0.58393   0.33744   0.00000  Uiso   1.00
H532   H     0.84978   0.58907   0.18334   0.00000  Uiso   1.00
H533   H     0.76720   0.44382   0.17542   0.00000  Uiso   1.00
H534   H     0.52374   0.61892   0.46650   0.00000  Uiso   1.00
H535   H     0.97220   0.62974   0.14154   0.00000  Uiso   1.00
H536   H     0.79807   0.32345   0.12484   0.00000  Uiso   1.00
H537   H     0.88884   0.38472   0.35862   0.00000  Uiso   1.00
H538   H     0.77826   0.42560   0.46738   0.00000  Uiso   1.00
H539   H     0.99094   0.43074   0.31327   0.00000  Uiso   1.00
H540   H     0.90836   0.28549   0.30535   0.00000  Uiso   1.00
H541   H     0.63831   0.49041   0.57196   0.00000  Uiso   1.00
H542   H     0.08678   0.50123   0.24700   0.00000  Uiso   1.00
H543   H     0.91264   0.19494   0.23030   0.00000  Uiso   1.00
O544   O     0.50588   0.58428   0.58855   0.00000  Uiso   1.00
O545   O     0.09425   0.59847   0.16220   0.00000  Uiso   1.00
O546   O     0.86578   0.19662   0.14030   0.00000  Uiso   1.00
N547   N     0.56587   0.58306   0.47640   0.00000  Uiso   1.00
N548   N     0.98516   0.59318   0.17259   0.00000  Uiso   1.00
N549   N     0.82237   0.30682   0.15696   0.00000  Uiso   1.00
N550   N     0.62752   0.51391   0.53314   0.00000  Uiso   1.00
N551   N     0.04681   0.52403   0.22933   0.00000  Uiso   1.00
N552   N     0.88402   0.23767   0.21371   0.00000  Uiso   1.00
