data_job_02060
_audit_creation_date              2018-12-19
_audit_creation_method            'Materials Studio'
_symmetry_space_group_name_H-M    'P1'
_symmetry_Int_Tables_number       1
_symmetry_cell_setting            triclinic
loop_
_symmetry_equiv_pos_as_xyz
  x,y,z
_cell_length_a                    15.6238
_cell_length_b                    12.5106
_cell_length_c                    15.2513
_cell_angle_alpha                 76.3233
_cell_angle_beta                  95.4884
_cell_angle_gamma                 109.1810
loop_
_atom_site_label
_atom_site_type_symbol
_atom_site_fract_x
_atom_site_fract_y
_atom_site_fract_z
_atom_site_U_iso_or_equiv
_atom_site_adp_type
_atom_site_occupancy
C1     C     0.01338   0.77478   0.38293   0.00000  Uiso   1.00
C2     C     0.98501   0.88200   0.34222   0.00000  Uiso   1.00
C3     C     0.91432   0.90831   0.37128   0.00000  Uiso   1.00
C4     C     0.89920   0.01053   0.32514   0.00000  Uiso   1.00
C5     C     0.84695   0.16585   0.27294   0.00000  Uiso   1.00
C6     C     0.00958   0.71517   0.30557   0.00000  Uiso   1.00
C7     C     0.95956   0.60120   0.30382   0.00000  Uiso   1.00
C8     C     0.96514   0.56298   0.22682   0.00000  Uiso   1.00
C9     C     0.95110   0.45927   0.11775   0.00000  Uiso   1.00
C10    C     0.11329   0.81952   0.40942   0.00000  Uiso   1.00
C11    C     0.15047   0.79327   0.49498   0.00000  Uiso   1.00
C12    C     0.24338   0.84289   0.50541   0.00000  Uiso   1.00
C13    C     0.39035   0.90120   0.55758   0.00000  Uiso   1.00
C14    C     0.11223   0.90954   0.24930   0.00000  Uiso   1.00
C15    C     0.03870   0.95519   0.26964   0.00000  Uiso   1.00
C16    C     0.02369   0.05741   0.22344   0.00000  Uiso   1.00
C17    C     0.95299   0.08386   0.25243   0.00000  Uiso   1.00
C18    C     0.06327   0.78836   0.23299   0.00000  Uiso   1.00
C19    C     0.06894   0.75030   0.15598   0.00000  Uiso   1.00
C20    C     0.01894   0.63631   0.15411   0.00000  Uiso   1.00
C21    C     0.16698   0.89272   0.33684   0.00000  Uiso   1.00
C22    C     0.25984   0.94238   0.34714   0.00000  Uiso   1.00
C23    C     0.29717   0.91622   0.43270   0.00000  Uiso   1.00
H24    H     0.97157   0.71779   0.43944   0.00000  Uiso   1.00
H25    H     0.87278   0.85163   0.42745   0.00000  Uiso   1.00
H26    H     0.91802   0.54457   0.36000   0.00000  Uiso   1.00
H27    H     0.10890   0.73662   0.55113   0.00000  Uiso   1.00
H28    H     0.78690   0.03228   0.38214   0.00000  Uiso   1.00
H29    H     0.88233   0.38482   0.23993   0.00000  Uiso   1.00
H30    H     0.28483   0.78979   0.64297   0.00000  Uiso   1.00
H31    H     0.15404   0.96653   0.19279   0.00000  Uiso   1.00
H32    H     0.06525   0.11403   0.16728   0.00000  Uiso   1.00
H33    H     0.11050   0.80697   0.09983   0.00000  Uiso   1.00
H34    H     0.30138   0.99902   0.29096   0.00000  Uiso   1.00
H35    H     0.94312   0.24525   0.17096   0.00000  Uiso   1.00
H36    H     0.03855   0.59779   0.02876   0.00000  Uiso   1.00
H37    H     0.44105   0.00276   0.43180   0.00000  Uiso   1.00
O38    O     0.80329   0.23129   0.26420   0.00000  Uiso   1.00
O39    O     0.92850   0.38184   0.07764   0.00000  Uiso   1.00
O40    O     0.45658   0.91315   0.60641   0.00000  Uiso   1.00
N41    N     0.83586   0.06217   0.33595   0.00000  Uiso   1.00
N42    N     0.92507   0.45684   0.20299   0.00000  Uiso   1.00
N43    N     0.30138   0.83543   0.57979   0.00000  Uiso   1.00
N44    N     0.91992   0.17677   0.22232   0.00000  Uiso   1.00
N45    N     0.00913   0.57144   0.08936   0.00000  Uiso   1.00
N46    N     0.38544   0.95002   0.46616   0.00000  Uiso   1.00
C47    C     0.98662   0.22522   0.61707   0.00000  Uiso   1.00
C48    C     0.01499   0.11800   0.65778   0.00000  Uiso   1.00
C49    C     0.08568   0.09169   0.62872   0.00000  Uiso   1.00
C50    C     0.10080   0.98947   0.67486   0.00000  Uiso   1.00
C51    C     0.15305   0.83415   0.72706   0.00000  Uiso   1.00
C52    C     0.99042   0.28483   0.69443   0.00000  Uiso   1.00
C53    C     0.04044   0.39880   0.69618   0.00000  Uiso   1.00
C54    C     0.03486   0.43702   0.77318   0.00000  Uiso   1.00
C55    C     0.04890   0.54073   0.88225   0.00000  Uiso   1.00
C56    C     0.88671   0.18048   0.59058   0.00000  Uiso   1.00
C57    C     0.84953   0.20673   0.50502   0.00000  Uiso   1.00
C58    C     0.75662   0.15711   0.49459   0.00000  Uiso   1.00
C59    C     0.60965   0.09880   0.44242   0.00000  Uiso   1.00
C60    C     0.88777   0.09046   0.75070   0.00000  Uiso   1.00
C61    C     0.96130   0.04481   0.73036   0.00000  Uiso   1.00
C62    C     0.97631   0.94259   0.77656   0.00000  Uiso   1.00
C63    C     0.04701   0.91614   0.74757   0.00000  Uiso   1.00
C64    C     0.93673   0.21164   0.76701   0.00000  Uiso   1.00
C65    C     0.93106   0.24970   0.84402   0.00000  Uiso   1.00
C66    C     0.98106   0.36369   0.84589   0.00000  Uiso   1.00
C67    C     0.83302   0.10728   0.66316   0.00000  Uiso   1.00
C68    C     0.74016   0.05762   0.65286   0.00000  Uiso   1.00
C69    C     0.70283   0.08378   0.56730   0.00000  Uiso   1.00
H70    H     0.02843   0.28221   0.56056   0.00000  Uiso   1.00
H71    H     0.12722   0.14837   0.57255   0.00000  Uiso   1.00
H72    H     0.08198   0.45543   0.64000   0.00000  Uiso   1.00
H73    H     0.89110   0.26338   0.44887   0.00000  Uiso   1.00
H74    H     0.21310   0.96772   0.61786   0.00000  Uiso   1.00
H75    H     0.11767   0.61518   0.76007   0.00000  Uiso   1.00
H76    H     0.71517   0.21021   0.35703   0.00000  Uiso   1.00
H77    H     0.84596   0.03347   0.80721   0.00000  Uiso   1.00
H78    H     0.93475   0.88597   0.83272   0.00000  Uiso   1.00
H79    H     0.88950   0.19303   0.90017   0.00000  Uiso   1.00
H80    H     0.69862   0.00098   0.70904   0.00000  Uiso   1.00
H81    H     0.05688   0.75475   0.82904   0.00000  Uiso   1.00
H82    H     0.96145   0.40221   0.97124   0.00000  Uiso   1.00
H83    H     0.55895   0.99724   0.56820   0.00000  Uiso   1.00
O84    O     0.19671   0.76871   0.73580   0.00000  Uiso   1.00
O85    O     0.07150   0.61816   0.92236   0.00000  Uiso   1.00
O86    O     0.54342   0.08685   0.39359   0.00000  Uiso   1.00
N87    N     0.16414   0.93783   0.66405   0.00000  Uiso   1.00
N88    N     0.07493   0.54316   0.79701   0.00000  Uiso   1.00
N89    N     0.69862   0.16457   0.42021   0.00000  Uiso   1.00
N90    N     0.08008   0.82323   0.77768   0.00000  Uiso   1.00
N91    N     0.99087   0.42856   0.91064   0.00000  Uiso   1.00
N92    N     0.61456   0.04998   0.53384   0.00000  Uiso   1.00
