data_job_02162
_audit_creation_date              2018-12-19
_audit_creation_method            'Materials Studio'
_symmetry_space_group_name_H-M    'P1'
_symmetry_Int_Tables_number       1
_symmetry_cell_setting            triclinic
loop_
_symmetry_equiv_pos_as_xyz
  x,y,z
_cell_length_a                    41.3193
_cell_length_b                    6.9863
_cell_length_c                    33.9374
_cell_angle_alpha                 90.0000
_cell_angle_beta                  36.2767
_cell_angle_gamma                 90.0000
loop_
_atom_site_label
_atom_site_type_symbol
_atom_site_fract_x
_atom_site_fract_y
_atom_site_fract_z
_atom_site_U_iso_or_equiv
_atom_site_adp_type
_atom_site_occupancy
C1     C     0.40097   0.91963   0.43247   0.00000  Uiso   1.00
C2     C     0.36698   0.94268   0.42846   0.00000  Uiso   1.00
C3     C     0.35291   0.79697   0.41639   0.00000  Uiso   1.00
C4     C     0.32159   0.84732   0.41462   0.00000  Uiso   1.00
C5     C     0.27136   0.85432   0.40684   0.00000  Uiso   1.00
C6     C     0.44903   0.05730   0.38114   0.00000  Uiso   1.00
C7     C     0.50394   0.00796   0.32929   0.00000  Uiso   1.00
C8     C     0.54168   0.15482   0.28771   0.00000  Uiso   1.00
C9     C     0.61883   0.33980   0.20649   0.00000  Uiso   1.00
C10    C     0.36592   0.99777   0.50038   0.00000  Uiso   1.00
C11    C     0.35097   0.89840   0.54878   0.00000  Uiso   1.00
C12    C     0.31876   0.99516   0.60758   0.00000  Uiso   1.00
C13    C     0.26688   0.08771   0.71150   0.00000  Uiso   1.00
C14    C     0.37035   0.26817   0.45081   0.00000  Uiso   1.00
C15    C     0.35035   0.13199   0.43841   0.00000  Uiso   1.00
C16    C     0.31903   0.18258   0.43667   0.00000  Uiso   1.00
C17    C     0.30492   0.03697   0.42460   0.00000  Uiso   1.00
C18    C     0.43240   0.24661   0.39110   0.00000  Uiso   1.00
C19    C     0.47006   0.39358   0.34958   0.00000  Uiso   1.00
C20    C     0.52502   0.34447   0.29768   0.00000  Uiso   1.00
C21    C     0.34929   0.18709   0.51034   0.00000  Uiso   1.00
C22    C     0.31709   0.28402   0.56907   0.00000  Uiso   1.00
C23    C     0.30210   0.18482   0.61756   0.00000  Uiso   1.00
H24    H     0.41392   0.77225   0.42472   0.00000  Uiso   1.00
H25    H     0.36579   0.65048   0.40867   0.00000  Uiso   1.00
H26    H     0.51680   0.86145   0.32160   0.00000  Uiso   1.00
H27    H     0.36385   0.75191   0.54106   0.00000  Uiso   1.00
H28    H     0.30512   0.59897   0.39526   0.00000  Uiso   1.00
H29    H     0.62352   0.04382   0.21168   0.00000  Uiso   1.00
H30    H     0.30100   0.81283   0.67444   0.00000  Uiso   1.00
H31    H     0.35740   0.41557   0.45856   0.00000  Uiso   1.00
H32    H     0.30617   0.32910   0.44438   0.00000  Uiso   1.00
H33    H     0.45718   0.54006   0.35731   0.00000  Uiso   1.00
H34    H     0.30423   0.43052   0.57676   0.00000  Uiso   1.00
H35    H     0.25673   0.14977   0.42423   0.00000  Uiso   1.00
H36    H     0.57513   0.59462   0.24065   0.00000  Uiso   1.00
H37    H     0.25262   0.36362   0.70342   0.00000  Uiso   1.00
O38    O     0.24826   0.80589   0.39978   0.00000  Uiso   1.00
O39    O     0.66599   0.38952   0.15894   0.00000  Uiso   1.00
O40    O     0.24285   0.08646   0.76607   0.00000  Uiso   1.00
N41    N     0.30075   0.74046   0.40404   0.00000  Uiso   1.00
N42    N     0.59844   0.15637   0.23239   0.00000  Uiso   1.00
N43    N     0.29693   0.94042   0.66503   0.00000  Uiso   1.00
N44    N     0.27471   0.03684   0.41963   0.00000  Uiso   1.00
N45    N     0.57240   0.45274   0.24799   0.00000  Uiso   1.00
N46    N     0.27089   0.23680   0.68062   0.00000  Uiso   1.00
C47    C     0.90097   0.41963   0.43247   0.00000  Uiso   1.00
C48    C     0.86698   0.44268   0.42846   0.00000  Uiso   1.00
C49    C     0.85291   0.29697   0.41639   0.00000  Uiso   1.00
C50    C     0.82159   0.34732   0.41462   0.00000  Uiso   1.00
C51    C     0.77136   0.35432   0.40684   0.00000  Uiso   1.00
C52    C     0.94903   0.55730   0.38114   0.00000  Uiso   1.00
C53    C     0.00394   0.50796   0.32929   0.00000  Uiso   1.00
C54    C     0.04168   0.65482   0.28771   0.00000  Uiso   1.00
C55    C     0.11883   0.83980   0.20649   0.00000  Uiso   1.00
C56    C     0.86592   0.49777   0.50038   0.00000  Uiso   1.00
C57    C     0.85097   0.39840   0.54878   0.00000  Uiso   1.00
C58    C     0.81876   0.49516   0.60758   0.00000  Uiso   1.00
C59    C     0.76688   0.58771   0.71150   0.00000  Uiso   1.00
C60    C     0.87035   0.76817   0.45081   0.00000  Uiso   1.00
C61    C     0.85035   0.63199   0.43841   0.00000  Uiso   1.00
C62    C     0.81903   0.68258   0.43667   0.00000  Uiso   1.00
C63    C     0.80492   0.53697   0.42460   0.00000  Uiso   1.00
C64    C     0.93240   0.74661   0.39110   0.00000  Uiso   1.00
C65    C     0.97006   0.89358   0.34958   0.00000  Uiso   1.00
C66    C     0.02502   0.84447   0.29768   0.00000  Uiso   1.00
C67    C     0.84929   0.68709   0.51034   0.00000  Uiso   1.00
C68    C     0.81709   0.78402   0.56907   0.00000  Uiso   1.00
C69    C     0.80210   0.68482   0.61756   0.00000  Uiso   1.00
H70    H     0.91392   0.27225   0.42472   0.00000  Uiso   1.00
H71    H     0.86579   0.15048   0.40867   0.00000  Uiso   1.00
H72    H     0.01680   0.36145   0.32160   0.00000  Uiso   1.00
H73    H     0.86385   0.25191   0.54106   0.00000  Uiso   1.00
H74    H     0.80512   0.09897   0.39526   0.00000  Uiso   1.00
H75    H     0.12352   0.54382   0.21168   0.00000  Uiso   1.00
H76    H     0.80100   0.31283   0.67444   0.00000  Uiso   1.00
H77    H     0.85740   0.91557   0.45856   0.00000  Uiso   1.00
H78    H     0.80617   0.82910   0.44438   0.00000  Uiso   1.00
H79    H     0.95718   0.04006   0.35731   0.00000  Uiso   1.00
H80    H     0.80423   0.93052   0.57676   0.00000  Uiso   1.00
H81    H     0.75673   0.64977   0.42423   0.00000  Uiso   1.00
H82    H     0.07513   0.09462   0.24065   0.00000  Uiso   1.00
H83    H     0.75262   0.86362   0.70342   0.00000  Uiso   1.00
O84    O     0.74826   0.30589   0.39978   0.00000  Uiso   1.00
O85    O     0.16599   0.88952   0.15894   0.00000  Uiso   1.00
O86    O     0.74285   0.58646   0.76607   0.00000  Uiso   1.00
N87    N     0.80075   0.24046   0.40404   0.00000  Uiso   1.00
N88    N     0.09844   0.65637   0.23239   0.00000  Uiso   1.00
N89    N     0.79693   0.44042   0.66503   0.00000  Uiso   1.00
N90    N     0.77471   0.53684   0.41963   0.00000  Uiso   1.00
N91    N     0.07240   0.95274   0.24799   0.00000  Uiso   1.00
N92    N     0.77089   0.73680   0.68062   0.00000  Uiso   1.00
C93    C     0.59903   0.91963   0.06753   0.00000  Uiso   1.00
C94    C     0.63302   0.94268   0.07154   0.00000  Uiso   1.00
C95    C     0.64709   0.79697   0.08361   0.00000  Uiso   1.00
C96    C     0.67841   0.84732   0.08538   0.00000  Uiso   1.00
C97    C     0.72864   0.85432   0.09316   0.00000  Uiso   1.00
C98    C     0.55097   0.05730   0.11886   0.00000  Uiso   1.00
C99    C     0.49606   0.00796   0.17071   0.00000  Uiso   1.00
C100   C     0.45832   0.15482   0.21229   0.00000  Uiso   1.00
C101   C     0.38117   0.33980   0.29351   0.00000  Uiso   1.00
C102   C     0.63408   0.99777   0.99962   0.00000  Uiso   1.00
C103   C     0.64903   0.89840   0.95122   0.00000  Uiso   1.00
C104   C     0.68124   0.99516   0.89242   0.00000  Uiso   1.00
C105   C     0.73312   0.08771   0.78850   0.00000  Uiso   1.00
C106   C     0.62965   0.26817   0.04919   0.00000  Uiso   1.00
C107   C     0.64965   0.13199   0.06159   0.00000  Uiso   1.00
C108   C     0.68097   0.18258   0.06333   0.00000  Uiso   1.00
C109   C     0.69508   0.03697   0.07540   0.00000  Uiso   1.00
C110   C     0.56760   0.24661   0.10890   0.00000  Uiso   1.00
C111   C     0.52994   0.39358   0.15042   0.00000  Uiso   1.00
C112   C     0.47498   0.34447   0.20232   0.00000  Uiso   1.00
C113   C     0.65071   0.18709   0.98966   0.00000  Uiso   1.00
C114   C     0.68291   0.28402   0.93093   0.00000  Uiso   1.00
C115   C     0.69790   0.18482   0.88244   0.00000  Uiso   1.00
H116   H     0.58608   0.77225   0.07528   0.00000  Uiso   1.00
H117   H     0.63421   0.65048   0.09133   0.00000  Uiso   1.00
H118   H     0.48320   0.86145   0.17840   0.00000  Uiso   1.00
H119   H     0.63615   0.75191   0.95894   0.00000  Uiso   1.00
H120   H     0.69488   0.59897   0.10474   0.00000  Uiso   1.00
H121   H     0.37648   0.04382   0.28832   0.00000  Uiso   1.00
H122   H     0.69900   0.81283   0.82556   0.00000  Uiso   1.00
H123   H     0.64260   0.41557   0.04144   0.00000  Uiso   1.00
H124   H     0.69383   0.32910   0.05562   0.00000  Uiso   1.00
H125   H     0.54282   0.54006   0.14269   0.00000  Uiso   1.00
H126   H     0.69577   0.43052   0.92324   0.00000  Uiso   1.00
H127   H     0.74327   0.14977   0.07577   0.00000  Uiso   1.00
H128   H     0.42487   0.59462   0.25935   0.00000  Uiso   1.00
H129   H     0.74738   0.36362   0.79658   0.00000  Uiso   1.00
O130   O     0.75174   0.80589   0.10022   0.00000  Uiso   1.00
O131   O     0.33401   0.38952   0.34106   0.00000  Uiso   1.00
O132   O     0.75715   0.08646   0.73393   0.00000  Uiso   1.00
N133   N     0.69925   0.74046   0.09596   0.00000  Uiso   1.00
N134   N     0.40156   0.15637   0.26761   0.00000  Uiso   1.00
N135   N     0.70307   0.94042   0.83497   0.00000  Uiso   1.00
N136   N     0.72529   0.03684   0.08037   0.00000  Uiso   1.00
N137   N     0.42760   0.45274   0.25201   0.00000  Uiso   1.00
N138   N     0.72911   0.23680   0.81938   0.00000  Uiso   1.00
C139   C     0.09903   0.41963   0.06753   0.00000  Uiso   1.00
C140   C     0.13302   0.44268   0.07154   0.00000  Uiso   1.00
C141   C     0.14709   0.29697   0.08361   0.00000  Uiso   1.00
C142   C     0.17841   0.34732   0.08538   0.00000  Uiso   1.00
C143   C     0.22864   0.35432   0.09316   0.00000  Uiso   1.00
C144   C     0.05097   0.55730   0.11886   0.00000  Uiso   1.00
C145   C     0.99606   0.50796   0.17071   0.00000  Uiso   1.00
C146   C     0.95832   0.65482   0.21229   0.00000  Uiso   1.00
C147   C     0.88117   0.83980   0.29351   0.00000  Uiso   1.00
C148   C     0.13408   0.49777   0.99962   0.00000  Uiso   1.00
C149   C     0.14903   0.39840   0.95122   0.00000  Uiso   1.00
C150   C     0.18124   0.49516   0.89242   0.00000  Uiso   1.00
C151   C     0.23312   0.58771   0.78850   0.00000  Uiso   1.00
C152   C     0.12965   0.76817   0.04919   0.00000  Uiso   1.00
C153   C     0.14965   0.63199   0.06159   0.00000  Uiso   1.00
C154   C     0.18097   0.68258   0.06333   0.00000  Uiso   1.00
C155   C     0.19508   0.53697   0.07540   0.00000  Uiso   1.00
C156   C     0.06760   0.74661   0.10890   0.00000  Uiso   1.00
C157   C     0.02994   0.89358   0.15042   0.00000  Uiso   1.00
C158   C     0.97498   0.84447   0.20232   0.00000  Uiso   1.00
C159   C     0.15071   0.68709   0.98966   0.00000  Uiso   1.00
C160   C     0.18291   0.78402   0.93093   0.00000  Uiso   1.00
C161   C     0.19790   0.68482   0.88244   0.00000  Uiso   1.00
H162   H     0.08608   0.27225   0.07528   0.00000  Uiso   1.00
H163   H     0.13421   0.15048   0.09133   0.00000  Uiso   1.00
H164   H     0.98320   0.36145   0.17840   0.00000  Uiso   1.00
H165   H     0.13615   0.25191   0.95894   0.00000  Uiso   1.00
H166   H     0.19488   0.09897   0.10474   0.00000  Uiso   1.00
H167   H     0.87648   0.54382   0.28832   0.00000  Uiso   1.00
H168   H     0.19900   0.31283   0.82556   0.00000  Uiso   1.00
H169   H     0.14260   0.91557   0.04144   0.00000  Uiso   1.00
H170   H     0.19383   0.82910   0.05562   0.00000  Uiso   1.00
H171   H     0.04282   0.04006   0.14269   0.00000  Uiso   1.00
H172   H     0.19577   0.93052   0.92324   0.00000  Uiso   1.00
H173   H     0.24327   0.64977   0.07577   0.00000  Uiso   1.00
H174   H     0.92487   0.09462   0.25935   0.00000  Uiso   1.00
H175   H     0.24738   0.86362   0.79658   0.00000  Uiso   1.00
O176   O     0.25174   0.30589   0.10022   0.00000  Uiso   1.00
O177   O     0.83401   0.88952   0.34106   0.00000  Uiso   1.00
O178   O     0.25715   0.58646   0.73393   0.00000  Uiso   1.00
N179   N     0.19925   0.24046   0.09596   0.00000  Uiso   1.00
N180   N     0.90156   0.65637   0.26761   0.00000  Uiso   1.00
N181   N     0.20307   0.44042   0.83497   0.00000  Uiso   1.00
N182   N     0.22529   0.53684   0.08037   0.00000  Uiso   1.00
N183   N     0.92760   0.95274   0.25201   0.00000  Uiso   1.00
N184   N     0.22911   0.73680   0.81938   0.00000  Uiso   1.00
C185   C     0.59903   0.08037   0.56753   0.00000  Uiso   1.00
C186   C     0.63302   0.05732   0.57154   0.00000  Uiso   1.00
C187   C     0.64709   0.20303   0.58361   0.00000  Uiso   1.00
C188   C     0.67841   0.15268   0.58538   0.00000  Uiso   1.00
C189   C     0.72864   0.14568   0.59316   0.00000  Uiso   1.00
C190   C     0.55097   0.94270   0.61886   0.00000  Uiso   1.00
C191   C     0.49606   0.99204   0.67071   0.00000  Uiso   1.00
C192   C     0.45832   0.84518   0.71229   0.00000  Uiso   1.00
C193   C     0.38117   0.66020   0.79351   0.00000  Uiso   1.00
C194   C     0.63408   0.00223   0.49962   0.00000  Uiso   1.00
C195   C     0.64903   0.10160   0.45122   0.00000  Uiso   1.00
C196   C     0.68124   0.00484   0.39242   0.00000  Uiso   1.00
C197   C     0.73312   0.91229   0.28850   0.00000  Uiso   1.00
C198   C     0.62965   0.73183   0.54919   0.00000  Uiso   1.00
C199   C     0.64965   0.86801   0.56159   0.00000  Uiso   1.00
C200   C     0.68097   0.81742   0.56333   0.00000  Uiso   1.00
C201   C     0.69508   0.96303   0.57540   0.00000  Uiso   1.00
C202   C     0.56760   0.75339   0.60890   0.00000  Uiso   1.00
C203   C     0.52994   0.60642   0.65042   0.00000  Uiso   1.00
C204   C     0.47498   0.65553   0.70232   0.00000  Uiso   1.00
C205   C     0.65071   0.81291   0.48966   0.00000  Uiso   1.00
C206   C     0.68291   0.71598   0.43093   0.00000  Uiso   1.00
C207   C     0.69790   0.81518   0.38244   0.00000  Uiso   1.00
H208   H     0.58608   0.22775   0.57528   0.00000  Uiso   1.00
H209   H     0.63421   0.34952   0.59133   0.00000  Uiso   1.00
H210   H     0.48320   0.13855   0.67840   0.00000  Uiso   1.00
H211   H     0.63615   0.24809   0.45894   0.00000  Uiso   1.00
H212   H     0.69488   0.40103   0.60474   0.00000  Uiso   1.00
H213   H     0.37648   0.95618   0.78832   0.00000  Uiso   1.00
H214   H     0.69900   0.18717   0.32556   0.00000  Uiso   1.00
H215   H     0.64260   0.58443   0.54144   0.00000  Uiso   1.00
H216   H     0.69383   0.67090   0.55562   0.00000  Uiso   1.00
H217   H     0.54282   0.45994   0.64269   0.00000  Uiso   1.00
H218   H     0.69577   0.56948   0.42324   0.00000  Uiso   1.00
H219   H     0.74327   0.85023   0.57577   0.00000  Uiso   1.00
H220   H     0.42487   0.40538   0.75935   0.00000  Uiso   1.00
H221   H     0.74738   0.63638   0.29658   0.00000  Uiso   1.00
O222   O     0.75174   0.19411   0.60022   0.00000  Uiso   1.00
O223   O     0.33401   0.61048   0.84106   0.00000  Uiso   1.00
O224   O     0.75715   0.91354   0.23393   0.00000  Uiso   1.00
N225   N     0.69925   0.25954   0.59596   0.00000  Uiso   1.00
N226   N     0.40156   0.84363   0.76761   0.00000  Uiso   1.00
N227   N     0.70307   0.05958   0.33497   0.00000  Uiso   1.00
N228   N     0.72529   0.96316   0.58037   0.00000  Uiso   1.00
N229   N     0.42760   0.54726   0.75201   0.00000  Uiso   1.00
N230   N     0.72911   0.76320   0.31938   0.00000  Uiso   1.00
C231   C     0.09903   0.58037   0.56753   0.00000  Uiso   1.00
C232   C     0.13302   0.55732   0.57154   0.00000  Uiso   1.00
C233   C     0.14709   0.70303   0.58361   0.00000  Uiso   1.00
C234   C     0.17841   0.65268   0.58538   0.00000  Uiso   1.00
C235   C     0.22864   0.64568   0.59316   0.00000  Uiso   1.00
C236   C     0.05097   0.44270   0.61886   0.00000  Uiso   1.00
C237   C     0.99606   0.49204   0.67071   0.00000  Uiso   1.00
C238   C     0.95832   0.34518   0.71229   0.00000  Uiso   1.00
C239   C     0.88117   0.16020   0.79351   0.00000  Uiso   1.00
C240   C     0.13408   0.50223   0.49962   0.00000  Uiso   1.00
C241   C     0.14903   0.60160   0.45122   0.00000  Uiso   1.00
C242   C     0.18124   0.50484   0.39242   0.00000  Uiso   1.00
C243   C     0.23312   0.41229   0.28850   0.00000  Uiso   1.00
C244   C     0.12965   0.23183   0.54919   0.00000  Uiso   1.00
C245   C     0.14965   0.36801   0.56159   0.00000  Uiso   1.00
C246   C     0.18097   0.31742   0.56333   0.00000  Uiso   1.00
C247   C     0.19508   0.46303   0.57540   0.00000  Uiso   1.00
C248   C     0.06760   0.25339   0.60890   0.00000  Uiso   1.00
C249   C     0.02994   0.10642   0.65042   0.00000  Uiso   1.00
C250   C     0.97498   0.15553   0.70232   0.00000  Uiso   1.00
C251   C     0.15071   0.31291   0.48966   0.00000  Uiso   1.00
C252   C     0.18291   0.21598   0.43093   0.00000  Uiso   1.00
C253   C     0.19790   0.31518   0.38244   0.00000  Uiso   1.00
H254   H     0.08608   0.72775   0.57528   0.00000  Uiso   1.00
H255   H     0.13421   0.84952   0.59133   0.00000  Uiso   1.00
H256   H     0.98320   0.63855   0.67840   0.00000  Uiso   1.00
H257   H     0.13615   0.74809   0.45894   0.00000  Uiso   1.00
H258   H     0.19488   0.90103   0.60474   0.00000  Uiso   1.00
H259   H     0.87648   0.45618   0.78832   0.00000  Uiso   1.00
H260   H     0.19900   0.68717   0.32556   0.00000  Uiso   1.00
H261   H     0.14260   0.08443   0.54144   0.00000  Uiso   1.00
H262   H     0.19383   0.17090   0.55562   0.00000  Uiso   1.00
H263   H     0.04282   0.95994   0.64269   0.00000  Uiso   1.00
H264   H     0.19577   0.06948   0.42324   0.00000  Uiso   1.00
H265   H     0.24327   0.35023   0.57577   0.00000  Uiso   1.00
H266   H     0.92487   0.90538   0.75935   0.00000  Uiso   1.00
H267   H     0.24738   0.13638   0.29658   0.00000  Uiso   1.00
O268   O     0.25174   0.69411   0.60022   0.00000  Uiso   1.00
O269   O     0.83401   0.11048   0.84106   0.00000  Uiso   1.00
O270   O     0.25715   0.41354   0.23393   0.00000  Uiso   1.00
N271   N     0.19925   0.75954   0.59596   0.00000  Uiso   1.00
N272   N     0.90156   0.34363   0.76761   0.00000  Uiso   1.00
N273   N     0.20307   0.55958   0.33497   0.00000  Uiso   1.00
N274   N     0.22529   0.46316   0.58037   0.00000  Uiso   1.00
N275   N     0.92760   0.04726   0.75201   0.00000  Uiso   1.00
N276   N     0.22911   0.26320   0.31938   0.00000  Uiso   1.00
C277   C     0.40097   0.08037   0.93247   0.00000  Uiso   1.00
C278   C     0.36698   0.05732   0.92846   0.00000  Uiso   1.00
C279   C     0.35291   0.20303   0.91639   0.00000  Uiso   1.00
C280   C     0.32159   0.15268   0.91462   0.00000  Uiso   1.00
C281   C     0.27136   0.14568   0.90684   0.00000  Uiso   1.00
C282   C     0.44903   0.94270   0.88114   0.00000  Uiso   1.00
C283   C     0.50394   0.99204   0.82929   0.00000  Uiso   1.00
C284   C     0.54168   0.84518   0.78771   0.00000  Uiso   1.00
C285   C     0.61883   0.66020   0.70649   0.00000  Uiso   1.00
C286   C     0.36592   0.00223   0.00038   0.00000  Uiso   1.00
C287   C     0.35097   0.10160   0.04878   0.00000  Uiso   1.00
C288   C     0.31876   0.00484   0.10758   0.00000  Uiso   1.00
C289   C     0.26688   0.91229   0.21150   0.00000  Uiso   1.00
C290   C     0.37035   0.73183   0.95081   0.00000  Uiso   1.00
C291   C     0.35035   0.86801   0.93841   0.00000  Uiso   1.00
C292   C     0.31903   0.81742   0.93667   0.00000  Uiso   1.00
C293   C     0.30492   0.96303   0.92460   0.00000  Uiso   1.00
C294   C     0.43240   0.75339   0.89110   0.00000  Uiso   1.00
C295   C     0.47006   0.60642   0.84958   0.00000  Uiso   1.00
C296   C     0.52502   0.65553   0.79768   0.00000  Uiso   1.00
C297   C     0.34929   0.81291   0.01034   0.00000  Uiso   1.00
C298   C     0.31709   0.71598   0.06907   0.00000  Uiso   1.00
C299   C     0.30210   0.81518   0.11756   0.00000  Uiso   1.00
H300   H     0.41392   0.22775   0.92472   0.00000  Uiso   1.00
H301   H     0.36579   0.34952   0.90867   0.00000  Uiso   1.00
H302   H     0.51680   0.13855   0.82160   0.00000  Uiso   1.00
H303   H     0.36385   0.24809   0.04106   0.00000  Uiso   1.00
H304   H     0.30512   0.40103   0.89526   0.00000  Uiso   1.00
H305   H     0.62352   0.95618   0.71168   0.00000  Uiso   1.00
H306   H     0.30100   0.18717   0.17444   0.00000  Uiso   1.00
H307   H     0.35740   0.58443   0.95856   0.00000  Uiso   1.00
H308   H     0.30617   0.67090   0.94438   0.00000  Uiso   1.00
H309   H     0.45718   0.45994   0.85731   0.00000  Uiso   1.00
H310   H     0.30423   0.56948   0.07676   0.00000  Uiso   1.00
H311   H     0.25673   0.85023   0.92423   0.00000  Uiso   1.00
H312   H     0.57513   0.40538   0.74065   0.00000  Uiso   1.00
H313   H     0.25262   0.63638   0.20342   0.00000  Uiso   1.00
O314   O     0.24826   0.19411   0.89978   0.00000  Uiso   1.00
O315   O     0.66599   0.61048   0.65894   0.00000  Uiso   1.00
O316   O     0.24285   0.91354   0.26607   0.00000  Uiso   1.00
N317   N     0.30075   0.25954   0.90404   0.00000  Uiso   1.00
N318   N     0.59844   0.84363   0.73239   0.00000  Uiso   1.00
N319   N     0.29693   0.05958   0.16503   0.00000  Uiso   1.00
N320   N     0.27471   0.96316   0.91963   0.00000  Uiso   1.00
N321   N     0.57240   0.54726   0.74799   0.00000  Uiso   1.00
N322   N     0.27089   0.76320   0.18062   0.00000  Uiso   1.00
C323   C     0.90097   0.58037   0.93247   0.00000  Uiso   1.00
C324   C     0.86698   0.55732   0.92846   0.00000  Uiso   1.00
C325   C     0.85291   0.70303   0.91639   0.00000  Uiso   1.00
C326   C     0.82159   0.65268   0.91462   0.00000  Uiso   1.00
C327   C     0.77136   0.64568   0.90684   0.00000  Uiso   1.00
C328   C     0.94903   0.44270   0.88114   0.00000  Uiso   1.00
C329   C     0.00394   0.49204   0.82929   0.00000  Uiso   1.00
C330   C     0.04168   0.34518   0.78771   0.00000  Uiso   1.00
C331   C     0.11883   0.16020   0.70649   0.00000  Uiso   1.00
C332   C     0.86592   0.50223   0.00038   0.00000  Uiso   1.00
C333   C     0.85097   0.60160   0.04878   0.00000  Uiso   1.00
C334   C     0.81876   0.50484   0.10758   0.00000  Uiso   1.00
C335   C     0.76688   0.41229   0.21150   0.00000  Uiso   1.00
C336   C     0.87035   0.23183   0.95081   0.00000  Uiso   1.00
C337   C     0.85035   0.36801   0.93841   0.00000  Uiso   1.00
C338   C     0.81903   0.31742   0.93667   0.00000  Uiso   1.00
C339   C     0.80492   0.46303   0.92460   0.00000  Uiso   1.00
C340   C     0.93240   0.25339   0.89110   0.00000  Uiso   1.00
C341   C     0.97006   0.10642   0.84958   0.00000  Uiso   1.00
C342   C     0.02502   0.15553   0.79768   0.00000  Uiso   1.00
C343   C     0.84929   0.31291   0.01034   0.00000  Uiso   1.00
C344   C     0.81709   0.21598   0.06907   0.00000  Uiso   1.00
C345   C     0.80210   0.31518   0.11756   0.00000  Uiso   1.00
H346   H     0.91392   0.72775   0.92472   0.00000  Uiso   1.00
H347   H     0.86579   0.84952   0.90867   0.00000  Uiso   1.00
H348   H     0.01680   0.63855   0.82160   0.00000  Uiso   1.00
H349   H     0.86385   0.74809   0.04106   0.00000  Uiso   1.00
H350   H     0.80512   0.90103   0.89526   0.00000  Uiso   1.00
H351   H     0.12352   0.45618   0.71168   0.00000  Uiso   1.00
H352   H     0.80100   0.68717   0.17444   0.00000  Uiso   1.00
H353   H     0.85740   0.08443   0.95856   0.00000  Uiso   1.00
H354   H     0.80617   0.17090   0.94438   0.00000  Uiso   1.00
H355   H     0.95718   0.95994   0.85731   0.00000  Uiso   1.00
H356   H     0.80423   0.06948   0.07676   0.00000  Uiso   1.00
H357   H     0.75673   0.35023   0.92423   0.00000  Uiso   1.00
H358   H     0.07513   0.90538   0.74065   0.00000  Uiso   1.00
H359   H     0.75262   0.13638   0.20342   0.00000  Uiso   1.00
O360   O     0.74826   0.69411   0.89978   0.00000  Uiso   1.00
O361   O     0.16599   0.11048   0.65894   0.00000  Uiso   1.00
O362   O     0.74285   0.41354   0.26607   0.00000  Uiso   1.00
N363   N     0.80075   0.75954   0.90404   0.00000  Uiso   1.00
N364   N     0.09844   0.34363   0.73239   0.00000  Uiso   1.00
N365   N     0.79693   0.55958   0.16503   0.00000  Uiso   1.00
N366   N     0.77471   0.46316   0.91963   0.00000  Uiso   1.00
N367   N     0.07240   0.04726   0.74799   0.00000  Uiso   1.00
N368   N     0.77089   0.26320   0.18062   0.00000  Uiso   1.00
