data_job_04255
_audit_creation_date              2018-12-19
_audit_creation_method            'Materials Studio'
_symmetry_space_group_name_H-M    'P1'
_symmetry_Int_Tables_number       1
_symmetry_cell_setting            triclinic
loop_
_symmetry_equiv_pos_as_xyz
  x,y,z
_cell_length_a                    7.6230
_cell_length_b                    22.3779
_cell_length_c                    12.6588
_cell_angle_alpha                 90.0000
_cell_angle_beta                  90.0000
_cell_angle_gamma                 90.0000
loop_
_atom_site_label
_atom_site_type_symbol
_atom_site_fract_x
_atom_site_fract_y
_atom_site_fract_z
_atom_site_U_iso_or_equiv
_atom_site_adp_type
_atom_site_occupancy
C1     C     0.16918   0.83132   0.24970   0.00000  Uiso   1.00
C2     C     0.09193   0.87686   0.17311   0.00000  Uiso   1.00
C3     C     0.18718   0.91515   0.10872   0.00000  Uiso   1.00
C4     C     0.09211   0.95350   0.04424   0.00000  Uiso   1.00
C5     C     0.00010   0.02423   0.92535   0.00000  Uiso   1.00
C6     C     0.09191   0.84608   0.35771   0.00000  Uiso   1.00
C7     C     0.18715   0.85849   0.44854   0.00000  Uiso   1.00
C8     C     0.09206   0.87091   0.53947   0.00000  Uiso   1.00
C9     C     0.00003   0.89381   0.70719   0.00000  Uiso   1.00
C10    C     0.09192   0.77103   0.21830   0.00000  Uiso   1.00
C11    C     0.18717   0.72033   0.19193   0.00000  Uiso   1.00
C12    C     0.09208   0.66956   0.16551   0.00000  Uiso   1.00
C13    C     0.00007   0.57593   0.11677   0.00000  Uiso   1.00
C14    C     0.83095   0.83132   0.24970   0.00000  Uiso   1.00
C15    C     0.90821   0.87686   0.17311   0.00000  Uiso   1.00
C16    C     0.81297   0.91515   0.10871   0.00000  Uiso   1.00
C17    C     0.90807   0.95350   0.04424   0.00000  Uiso   1.00
C18    C     0.90821   0.84608   0.35771   0.00000  Uiso   1.00
C19    C     0.81295   0.85849   0.44853   0.00000  Uiso   1.00
C20    C     0.90802   0.87091   0.53947   0.00000  Uiso   1.00
C21    C     0.90821   0.77103   0.21829   0.00000  Uiso   1.00
C22    C     0.81296   0.72033   0.19192   0.00000  Uiso   1.00
C23    C     0.90804   0.66956   0.16551   0.00000  Uiso   1.00
H24    H     0.31220   0.83132   0.24971   0.00000  Uiso   1.00
H25    H     0.32935   0.91514   0.10875   0.00000  Uiso   1.00
H26    H     0.32932   0.85848   0.44852   0.00000  Uiso   1.00
H27    H     0.32933   0.72034   0.19194   0.00000  Uiso   1.00
H28    H     0.26734   0.00809   0.95249   0.00000  Uiso   1.00
H29    H     0.26728   0.88859   0.66892   0.00000  Uiso   1.00
H30    H     0.26731   0.59730   0.12789   0.00000  Uiso   1.00
H31    H     0.68792   0.83132   0.24970   0.00000  Uiso   1.00
H32    H     0.67081   0.91515   0.10873   0.00000  Uiso   1.00
H33    H     0.67078   0.85848   0.44850   0.00000  Uiso   1.00
H34    H     0.67080   0.72035   0.19193   0.00000  Uiso   1.00
H35    H     0.73284   0.00809   0.95248   0.00000  Uiso   1.00
H36    H     0.73279   0.88859   0.66891   0.00000  Uiso   1.00
H37    H     0.73281   0.59730   0.12787   0.00000  Uiso   1.00
O38    O     0.00010   0.06325   0.85978   0.00000  Uiso   1.00
O39    O     0.00002   0.90645   0.79970   0.00000  Uiso   1.00
O40    O     0.00006   0.52429   0.08988   0.00000  Uiso   1.00
N41    N     0.14390   0.99658   0.97182   0.00000  Uiso   1.00
N42    N     0.14384   0.88486   0.64163   0.00000  Uiso   1.00
N43    N     0.14387   0.61253   0.13584   0.00000  Uiso   1.00
N44    N     0.85629   0.99658   0.97181   0.00000  Uiso   1.00
N45    N     0.85623   0.88486   0.64162   0.00000  Uiso   1.00
N46    N     0.85626   0.61253   0.13583   0.00000  Uiso   1.00
C47    C     0.33082   0.16868   0.74970   0.00000  Uiso   1.00
C48    C     0.40807   0.12314   0.67311   0.00000  Uiso   1.00
C49    C     0.31282   0.08485   0.60872   0.00000  Uiso   1.00
C50    C     0.40789   0.04650   0.54424   0.00000  Uiso   1.00
C51    C     0.49990   0.97577   0.42535   0.00000  Uiso   1.00
C52    C     0.40809   0.15392   0.85771   0.00000  Uiso   1.00
C53    C     0.31285   0.14151   0.94854   0.00000  Uiso   1.00
C54    C     0.40794   0.12909   0.03947   0.00000  Uiso   1.00
C55    C     0.49997   0.10619   0.20719   0.00000  Uiso   1.00
C56    C     0.40808   0.22897   0.71830   0.00000  Uiso   1.00
C57    C     0.31283   0.27967   0.69193   0.00000  Uiso   1.00
C58    C     0.40792   0.33044   0.66551   0.00000  Uiso   1.00
C59    C     0.49993   0.42407   0.61677   0.00000  Uiso   1.00
C60    C     0.66905   0.16868   0.74970   0.00000  Uiso   1.00
C61    C     0.59179   0.12314   0.67311   0.00000  Uiso   1.00
C62    C     0.68703   0.08485   0.60871   0.00000  Uiso   1.00
C63    C     0.59193   0.04650   0.54424   0.00000  Uiso   1.00
C64    C     0.59179   0.15392   0.85771   0.00000  Uiso   1.00
C65    C     0.68705   0.14151   0.94853   0.00000  Uiso   1.00
C66    C     0.59198   0.12909   0.03947   0.00000  Uiso   1.00
C67    C     0.59179   0.22897   0.71829   0.00000  Uiso   1.00
C68    C     0.68704   0.27967   0.69192   0.00000  Uiso   1.00
C69    C     0.59196   0.33044   0.66551   0.00000  Uiso   1.00
H70    H     0.18780   0.16868   0.74971   0.00000  Uiso   1.00
H71    H     0.17065   0.08486   0.60875   0.00000  Uiso   1.00
H72    H     0.17068   0.14152   0.94852   0.00000  Uiso   1.00
H73    H     0.17067   0.27966   0.69194   0.00000  Uiso   1.00
H74    H     0.23266   0.99191   0.45249   0.00000  Uiso   1.00
H75    H     0.23272   0.11141   0.16892   0.00000  Uiso   1.00
H76    H     0.23269   0.40270   0.62789   0.00000  Uiso   1.00
H77    H     0.81208   0.16868   0.74970   0.00000  Uiso   1.00
H78    H     0.82919   0.08485   0.60873   0.00000  Uiso   1.00
H79    H     0.82922   0.14152   0.94850   0.00000  Uiso   1.00
H80    H     0.82920   0.27965   0.69193   0.00000  Uiso   1.00
H81    H     0.76716   0.99191   0.45248   0.00000  Uiso   1.00
H82    H     0.76721   0.11141   0.16891   0.00000  Uiso   1.00
H83    H     0.76719   0.40270   0.62787   0.00000  Uiso   1.00
O84    O     0.49990   0.93675   0.35978   0.00000  Uiso   1.00
O85    O     0.49998   0.09355   0.29970   0.00000  Uiso   1.00
O86    O     0.49994   0.47571   0.58988   0.00000  Uiso   1.00
N87    N     0.35610   0.00342   0.47182   0.00000  Uiso   1.00
N88    N     0.35616   0.11514   0.14163   0.00000  Uiso   1.00
N89    N     0.35613   0.38747   0.63584   0.00000  Uiso   1.00
N90    N     0.64371   0.00342   0.47181   0.00000  Uiso   1.00
N91    N     0.64377   0.11514   0.14162   0.00000  Uiso   1.00
N92    N     0.64374   0.38747   0.63583   0.00000  Uiso   1.00
C93    C     0.83082   0.33132   0.25030   0.00000  Uiso   1.00
C94    C     0.90807   0.37686   0.32689   0.00000  Uiso   1.00
C95    C     0.81282   0.41515   0.39128   0.00000  Uiso   1.00
C96    C     0.90789   0.45350   0.45576   0.00000  Uiso   1.00
C97    C     0.99990   0.52423   0.57465   0.00000  Uiso   1.00
C98    C     0.90809   0.34608   0.14229   0.00000  Uiso   1.00
C99    C     0.81285   0.35849   0.05146   0.00000  Uiso   1.00
C100   C     0.90794   0.37091   0.96053   0.00000  Uiso   1.00
C101   C     0.99997   0.39381   0.79281   0.00000  Uiso   1.00
C102   C     0.90808   0.27103   0.28170   0.00000  Uiso   1.00
C103   C     0.81283   0.22033   0.30807   0.00000  Uiso   1.00
C104   C     0.90792   0.16956   0.33449   0.00000  Uiso   1.00
C105   C     0.99993   0.07593   0.38323   0.00000  Uiso   1.00
C106   C     0.16905   0.33132   0.25030   0.00000  Uiso   1.00
C107   C     0.09179   0.37686   0.32689   0.00000  Uiso   1.00
C108   C     0.18703   0.41515   0.39129   0.00000  Uiso   1.00
C109   C     0.09193   0.45350   0.45576   0.00000  Uiso   1.00
C110   C     0.09179   0.34608   0.14229   0.00000  Uiso   1.00
C111   C     0.18705   0.35849   0.05147   0.00000  Uiso   1.00
C112   C     0.09198   0.37091   0.96053   0.00000  Uiso   1.00
C113   C     0.09179   0.27103   0.28171   0.00000  Uiso   1.00
C114   C     0.18704   0.22033   0.30808   0.00000  Uiso   1.00
C115   C     0.09196   0.16956   0.33449   0.00000  Uiso   1.00
H116   H     0.68780   0.33132   0.25029   0.00000  Uiso   1.00
H117   H     0.67065   0.41514   0.39125   0.00000  Uiso   1.00
H118   H     0.67068   0.35848   0.05148   0.00000  Uiso   1.00
H119   H     0.67067   0.22034   0.30806   0.00000  Uiso   1.00
H120   H     0.73266   0.50809   0.54751   0.00000  Uiso   1.00
H121   H     0.73272   0.38859   0.83108   0.00000  Uiso   1.00
H122   H     0.73269   0.09730   0.37211   0.00000  Uiso   1.00
H123   H     0.31208   0.33132   0.25030   0.00000  Uiso   1.00
H124   H     0.32919   0.41515   0.39127   0.00000  Uiso   1.00
H125   H     0.32922   0.35848   0.05150   0.00000  Uiso   1.00
H126   H     0.32920   0.22035   0.30807   0.00000  Uiso   1.00
H127   H     0.26716   0.50809   0.54752   0.00000  Uiso   1.00
H128   H     0.26721   0.38859   0.83109   0.00000  Uiso   1.00
H129   H     0.26719   0.09730   0.37213   0.00000  Uiso   1.00
O130   O     0.99990   0.56325   0.64022   0.00000  Uiso   1.00
O131   O     0.99998   0.40645   0.70030   0.00000  Uiso   1.00
O132   O     0.99994   0.02429   0.41012   0.00000  Uiso   1.00
N133   N     0.85610   0.49658   0.52818   0.00000  Uiso   1.00
N134   N     0.85616   0.38486   0.85837   0.00000  Uiso   1.00
N135   N     0.85613   0.11253   0.36416   0.00000  Uiso   1.00
N136   N     0.14371   0.49658   0.52819   0.00000  Uiso   1.00
N137   N     0.14377   0.38486   0.85838   0.00000  Uiso   1.00
N138   N     0.14374   0.11253   0.36417   0.00000  Uiso   1.00
C139   C     0.66918   0.66868   0.75030   0.00000  Uiso   1.00
C140   C     0.59193   0.62314   0.82689   0.00000  Uiso   1.00
C141   C     0.68718   0.58485   0.89128   0.00000  Uiso   1.00
C142   C     0.59211   0.54650   0.95576   0.00000  Uiso   1.00
C143   C     0.50010   0.47577   0.07465   0.00000  Uiso   1.00
C144   C     0.59191   0.65392   0.64229   0.00000  Uiso   1.00
C145   C     0.68715   0.64151   0.55146   0.00000  Uiso   1.00
C146   C     0.59206   0.62909   0.46053   0.00000  Uiso   1.00
C147   C     0.50003   0.60619   0.29281   0.00000  Uiso   1.00
C148   C     0.59192   0.72897   0.78170   0.00000  Uiso   1.00
C149   C     0.68717   0.77967   0.80807   0.00000  Uiso   1.00
C150   C     0.59208   0.83044   0.83449   0.00000  Uiso   1.00
C151   C     0.50007   0.92407   0.88323   0.00000  Uiso   1.00
C152   C     0.33095   0.66868   0.75030   0.00000  Uiso   1.00
C153   C     0.40821   0.62314   0.82689   0.00000  Uiso   1.00
C154   C     0.31297   0.58485   0.89129   0.00000  Uiso   1.00
C155   C     0.40807   0.54650   0.95576   0.00000  Uiso   1.00
C156   C     0.40821   0.65392   0.64229   0.00000  Uiso   1.00
C157   C     0.31295   0.64151   0.55147   0.00000  Uiso   1.00
C158   C     0.40802   0.62909   0.46053   0.00000  Uiso   1.00
C159   C     0.40821   0.72897   0.78171   0.00000  Uiso   1.00
C160   C     0.31296   0.77967   0.80808   0.00000  Uiso   1.00
C161   C     0.40804   0.83044   0.83449   0.00000  Uiso   1.00
H162   H     0.81220   0.66868   0.75029   0.00000  Uiso   1.00
H163   H     0.82935   0.58486   0.89125   0.00000  Uiso   1.00
H164   H     0.82932   0.64152   0.55148   0.00000  Uiso   1.00
H165   H     0.82933   0.77966   0.80806   0.00000  Uiso   1.00
H166   H     0.76734   0.49191   0.04751   0.00000  Uiso   1.00
H167   H     0.76728   0.61141   0.33108   0.00000  Uiso   1.00
H168   H     0.76731   0.90270   0.87211   0.00000  Uiso   1.00
H169   H     0.18792   0.66868   0.75030   0.00000  Uiso   1.00
H170   H     0.17081   0.58485   0.89127   0.00000  Uiso   1.00
H171   H     0.17078   0.64152   0.55150   0.00000  Uiso   1.00
H172   H     0.17080   0.77965   0.80807   0.00000  Uiso   1.00
H173   H     0.23284   0.49191   0.04752   0.00000  Uiso   1.00
H174   H     0.23279   0.61141   0.33109   0.00000  Uiso   1.00
H175   H     0.23281   0.90270   0.87213   0.00000  Uiso   1.00
O176   O     0.50010   0.43675   0.14022   0.00000  Uiso   1.00
O177   O     0.50002   0.59355   0.20030   0.00000  Uiso   1.00
O178   O     0.50006   0.97571   0.91012   0.00000  Uiso   1.00
N179   N     0.64390   0.50342   0.02818   0.00000  Uiso   1.00
N180   N     0.64384   0.61514   0.35837   0.00000  Uiso   1.00
N181   N     0.64387   0.88747   0.86416   0.00000  Uiso   1.00
N182   N     0.35629   0.50342   0.02819   0.00000  Uiso   1.00
N183   N     0.35623   0.61514   0.35838   0.00000  Uiso   1.00
N184   N     0.35626   0.88747   0.86417   0.00000  Uiso   1.00
