data_job_05984
_audit_creation_date              2018-12-19
_audit_creation_method            'Materials Studio'
_symmetry_space_group_name_H-M    'P1'
_symmetry_Int_Tables_number       1
_symmetry_cell_setting            triclinic
loop_
_symmetry_equiv_pos_as_xyz
  x,y,z
_cell_length_a                    8.5149
_cell_length_b                    21.0232
_cell_length_c                    21.0469
_cell_angle_alpha                 61.7350
_cell_angle_beta                  98.0182
_cell_angle_gamma                 82.7686
loop_
_atom_site_label
_atom_site_type_symbol
_atom_site_fract_x
_atom_site_fract_y
_atom_site_fract_z
_atom_site_U_iso_or_equiv
_atom_site_adp_type
_atom_site_occupancy
C1     C     0.40498   0.25086   0.17851   0.00000  Uiso   1.00
C2     C     0.51993   0.23151   0.25058   0.00000  Uiso   1.00
C3     C     0.48051   0.24837   0.30347   0.00000  Uiso   1.00
C4     C     0.60280   0.22588   0.36558   0.00000  Uiso   1.00
C5     C     0.75758   0.20165   0.47613   0.00000  Uiso   1.00
C6     C     0.48701   0.29530   0.11656   0.00000  Uiso   1.00
C7     C     0.41989   0.36579   0.05677   0.00000  Uiso   1.00
C8     C     0.51447   0.39699   0.00606   0.00000  Uiso   1.00
C9     C     0.61808   0.47177   0.90850   0.00000  Uiso   1.00
C10    C     0.40488   0.17786   0.17951   0.00000  Uiso   1.00
C11    C     0.26871   0.14961   0.17264   0.00000  Uiso   1.00
C12    C     0.29414   0.08195   0.17492   0.00000  Uiso   1.00
C13    C     0.27023   0.97438   0.17511   0.00000  Uiso   1.00
C14    C     0.69227   0.18094   0.19475   0.00000  Uiso   1.00
C15    C     0.67598   0.19353   0.25939   0.00000  Uiso   1.00
C16    C     0.79836   0.17101   0.32144   0.00000  Uiso   1.00
C17    C     0.75913   0.18783   0.37442   0.00000  Uiso   1.00
C18    C     0.64305   0.25732   0.12538   0.00000  Uiso   1.00
C19    C     0.73775   0.28843   0.07474   0.00000  Uiso   1.00
C20    C     0.67079   0.35894   0.01489   0.00000  Uiso   1.00
C21    C     0.56093   0.13988   0.18834   0.00000  Uiso   1.00
C22    C     0.58657   0.07225   0.19061   0.00000  Uiso   1.00
C23    C     0.45046   0.04390   0.18375   0.00000  Uiso   1.00
H24    H     0.28349   0.28043   0.17164   0.00000  Uiso   1.00
H25    H     0.35973   0.27777   0.29662   0.00000  Uiso   1.00
H26    H     0.29912   0.39516   0.04996   0.00000  Uiso   1.00
H27    H     0.14797   0.17902   0.16581   0.00000  Uiso   1.00
H28    H     0.51310   0.25809   0.43907   0.00000  Uiso   1.00
H29    H     0.38527   0.50561   0.91895   0.00000  Uiso   1.00
H30    H     0.06653   0.04983   0.16325   0.00000  Uiso   1.00
H31    H     0.81377   0.15137   0.20161   0.00000  Uiso   1.00
H32    H     0.91911   0.14162   0.32825   0.00000  Uiso   1.00
H33    H     0.85849   0.25902   0.08158   0.00000  Uiso   1.00
H34    H     0.70734   0.04287   0.19744   0.00000  Uiso   1.00
H35    H     0.96711   0.14759   0.46474   0.00000  Uiso   1.00
H36    H     0.83928   0.39511   0.94461   0.00000  Uiso   1.00
H37    H     0.52054   0.93933   0.18892   0.00000  Uiso   1.00
O38    O     0.79985   0.19878   0.53466   0.00000  Uiso   1.00
O39    O     0.63213   0.52351   0.85226   0.00000  Uiso   1.00
O40    O     0.21395   0.92554   0.17280   0.00000  Uiso   1.00
N41    N     0.60548   0.23341   0.42774   0.00000  Uiso   1.00
N42    N     0.48598   0.46483   0.94146   0.00000  Uiso   1.00
N43    N     0.18798   0.03873   0.16985   0.00000  Uiso   1.00
N44    N     0.84978   0.17395   0.44155   0.00000  Uiso   1.00
N45    N     0.73028   0.40537   0.95527   0.00000  Uiso   1.00
N46    N     0.43228   0.97927   0.18366   0.00000  Uiso   1.00
C47    C     0.65275   0.57580   0.24817   0.00000  Uiso   1.00
C48    C     0.74730   0.52346   0.22864   0.00000  Uiso   1.00
C49    C     0.72367   0.45354   0.24561   0.00000  Uiso   1.00
C50    C     0.82262   0.41433   0.22292   0.00000  Uiso   1.00
C51    C     0.95149   0.32853   0.19845   0.00000  Uiso   1.00
C52    C     0.77932   0.59372   0.29242   0.00000  Uiso   1.00
C53    C     0.78260   0.58289   0.36301   0.00000  Uiso   1.00
C54    C     0.90850   0.60283   0.39401   0.00000  Uiso   1.00
C55    C     0.08701   0.62616   0.46853   0.00000  Uiso   1.00
C56    C     0.58086   0.64769   0.17517   0.00000  Uiso   1.00
C57    C     0.41727   0.68225   0.14718   0.00000  Uiso   1.00
C58    C     0.37608   0.74765   0.07946   0.00000  Uiso   1.00
C59    C     0.24646   0.85478   0.97193   0.00000  Uiso   1.00
C60    C     0.87048   0.63049   0.17771   0.00000  Uiso   1.00
C61    C     0.86556   0.55317   0.19037   0.00000  Uiso   1.00
C62    C     0.96457   0.51406   0.16765   0.00000  Uiso   1.00
C63    C     0.94109   0.44409   0.18458   0.00000  Uiso   1.00
C64    C     0.89758   0.62343   0.25415   0.00000  Uiso   1.00
C65    C     0.02349   0.64340   0.28505   0.00000  Uiso   1.00
C66    C     0.02697   0.63260   0.35566   0.00000  Uiso   1.00
C67    C     0.69912   0.67740   0.13689   0.00000  Uiso   1.00
C68    C     0.65817   0.74276   0.06921   0.00000  Uiso   1.00
C69    C     0.49456   0.77741   0.04112   0.00000  Uiso   1.00
H70    H     0.56068   0.55267   0.27797   0.00000  Uiso   1.00
H71    H     0.63215   0.43057   0.27524   0.00000  Uiso   1.00
H72    H     0.69106   0.55990   0.39261   0.00000  Uiso   1.00
H73    H     0.32579   0.65925   0.17681   0.00000  Uiso   1.00
H74    H     0.76357   0.30828   0.25535   0.00000  Uiso   1.00
H75    H     0.88775   0.58101   0.50283   0.00000  Uiso   1.00
H76    H     0.11752   0.79051   0.04777   0.00000  Uiso   1.00
H77    H     0.96256   0.65363   0.14791   0.00000  Uiso   1.00
H78    H     0.05608   0.53706   0.13803   0.00000  Uiso   1.00
H79    H     0.11498   0.66639   0.25541   0.00000  Uiso   1.00
H80    H     0.74972   0.76574   0.03961   0.00000  Uiso   1.00
H81    H     0.10766   0.39472   0.14399   0.00000  Uiso   1.00
H82    H     0.23183   0.66745   0.39147   0.00000  Uiso   1.00
H83    H     0.46160   0.87694   0.93641   0.00000  Uiso   1.00
O84    O     0.98992   0.27299   0.19554   0.00000  Uiso   1.00
O85    O     0.15281   0.63082   0.52022   0.00000  Uiso   1.00
O86    O     0.14229   0.90566   0.92319   0.00000  Uiso   1.00
N87    N     0.83170   0.34463   0.23048   0.00000  Uiso   1.00
N88    N     0.94781   0.59960   0.46187   0.00000  Uiso   1.00
N89    N     0.22771   0.79547   0.03643   0.00000  Uiso   1.00
N90    N     0.01684   0.39114   0.17056   0.00000  Uiso   1.00
N91    N     0.13296   0.64611   0.40195   0.00000  Uiso   1.00
N92    N     0.41286   0.84198   0.97651   0.00000  Uiso   1.00
C93    C     0.21953   0.18013   0.57346   0.00000  Uiso   1.00
C94    C     0.26275   0.25231   0.52093   0.00000  Uiso   1.00
C95    C     0.17015   0.30506   0.45106   0.00000  Uiso   1.00
C96    C     0.23072   0.36731   0.41164   0.00000  Uiso   1.00
C97    C     0.27537   0.47798   0.32558   0.00000  Uiso   1.00
C98    C     0.36277   0.11845   0.59117   0.00000  Uiso   1.00
C99    C     0.35425   0.05865   0.58037   0.00000  Uiso   1.00
C100   C     0.49903   0.00821   0.60009   0.00000  Uiso   1.00
C101   C     0.69894   0.91103   0.62313   0.00000  Uiso   1.00
C102   C     0.21964   0.18110   0.64546   0.00000  Uiso   1.00
C103   C     0.09080   0.17396   0.68032   0.00000  Uiso   1.00
C104   C     0.11509   0.17624   0.74576   0.00000  Uiso   1.00
C105   C     0.09278   0.17634   0.85308   0.00000  Uiso   1.00
C106   C     0.49177   0.19686   0.62771   0.00000  Uiso   1.00
C107   C     0.41062   0.26139   0.55039   0.00000  Uiso   1.00
C108   C     0.47134   0.32357   0.51107   0.00000  Uiso   1.00
C109   C     0.37885   0.37641   0.44116   0.00000  Uiso   1.00
C110   C     0.51064   0.12753   0.62063   0.00000  Uiso   1.00
C111   C     0.65545   0.07716   0.64038   0.00000  Uiso   1.00
C112   C     0.64716   0.01731   0.62961   0.00000  Uiso   1.00
C113   C     0.36751   0.19018   0.67492   0.00000  Uiso   1.00
C114   C     0.39200   0.19247   0.74033   0.00000  Uiso   1.00
C115   C     0.26322   0.18534   0.77528   0.00000  Uiso   1.00
H116   H     0.10441   0.17305   0.55052   0.00000  Uiso   1.00
H117   H     0.05572   0.29801   0.42827   0.00000  Uiso   1.00
H118   H     0.23981   0.05164   0.55757   0.00000  Uiso   1.00
H119   H     0.97640   0.16693   0.65750   0.00000  Uiso   1.00
H120   H     0.06698   0.44054   0.30572   0.00000  Uiso   1.00
H121   H     0.45512   0.92103   0.57838   0.00000  Uiso   1.00
H122   H     0.89966   0.16415   0.78909   0.00000  Uiso   1.00
H123   H     0.60690   0.20393   0.65065   0.00000  Uiso   1.00
H124   H     0.58578   0.33058   0.53389   0.00000  Uiso   1.00
H125   H     0.76986   0.08420   0.66319   0.00000  Uiso   1.00
H126   H     0.50645   0.19950   0.76311   0.00000  Uiso   1.00
H127   H     0.49720   0.46698   0.39144   0.00000  Uiso   1.00
H128   H     0.88533   0.94746   0.66410   0.00000  Uiso   1.00
H129   H     0.32988   0.19058   0.87481   0.00000  Uiso   1.00
O130   O     0.25916   0.53651   0.26996   0.00000  Uiso   1.00
O131   O     0.76836   0.85492   0.62768   0.00000  Uiso   1.00
O132   O     0.03962   0.17389   0.90413   0.00000  Uiso   1.00
N133   N     0.17112   0.42939   0.34193   0.00000  Uiso   1.00
N134   N     0.53400   0.94368   0.59683   0.00000  Uiso   1.00
N135   N     0.01471   0.17096   0.79384   0.00000  Uiso   1.00
N136   N     0.40261   0.44361   0.38805   0.00000  Uiso   1.00
N137   N     0.76549   0.95791   0.64295   0.00000  Uiso   1.00
N138   N     0.24621   0.18518   0.83997   0.00000  Uiso   1.00
C139   C     0.59502   0.74914   0.82149   0.00000  Uiso   1.00
C140   C     0.48007   0.76849   0.74942   0.00000  Uiso   1.00
C141   C     0.51949   0.75163   0.69653   0.00000  Uiso   1.00
C142   C     0.39720   0.77412   0.63442   0.00000  Uiso   1.00
C143   C     0.24242   0.79835   0.52387   0.00000  Uiso   1.00
C144   C     0.51299   0.70470   0.88344   0.00000  Uiso   1.00
C145   C     0.58011   0.63421   0.94323   0.00000  Uiso   1.00
C146   C     0.48553   0.60301   0.99394   0.00000  Uiso   1.00
C147   C     0.38192   0.52823   0.09150   0.00000  Uiso   1.00
C148   C     0.59512   0.82214   0.82049   0.00000  Uiso   1.00
C149   C     0.73129   0.85039   0.82736   0.00000  Uiso   1.00
C150   C     0.70586   0.91805   0.82509   0.00000  Uiso   1.00
C151   C     0.72977   0.02562   0.82489   0.00000  Uiso   1.00
C152   C     0.30773   0.81906   0.80525   0.00000  Uiso   1.00
C153   C     0.32402   0.80647   0.74061   0.00000  Uiso   1.00
C154   C     0.20164   0.82899   0.67856   0.00000  Uiso   1.00
C155   C     0.24087   0.81217   0.62558   0.00000  Uiso   1.00
C156   C     0.35695   0.74268   0.87462   0.00000  Uiso   1.00
C157   C     0.26225   0.71157   0.92526   0.00000  Uiso   1.00
C158   C     0.32921   0.64106   0.98511   0.00000  Uiso   1.00
C159   C     0.43907   0.86012   0.81166   0.00000  Uiso   1.00
C160   C     0.41343   0.92775   0.80939   0.00000  Uiso   1.00
C161   C     0.54954   0.95610   0.81625   0.00000  Uiso   1.00
H162   H     0.71651   0.71957   0.82836   0.00000  Uiso   1.00
H163   H     0.64027   0.72223   0.70338   0.00000  Uiso   1.00
H164   H     0.70088   0.60484   0.95005   0.00000  Uiso   1.00
H165   H     0.85203   0.82098   0.83419   0.00000  Uiso   1.00
H166   H     0.48690   0.74191   0.56093   0.00000  Uiso   1.00
H167   H     0.61473   0.49439   0.08105   0.00000  Uiso   1.00
H168   H     0.93347   0.95017   0.83675   0.00000  Uiso   1.00
H169   H     0.18623   0.84863   0.79839   0.00000  Uiso   1.00
H170   H     0.08089   0.85838   0.67175   0.00000  Uiso   1.00
H171   H     0.14151   0.74098   0.91842   0.00000  Uiso   1.00
H172   H     0.29266   0.95713   0.80256   0.00000  Uiso   1.00
H173   H     0.03289   0.85241   0.53526   0.00000  Uiso   1.00
H174   H     0.16072   0.60489   0.05539   0.00000  Uiso   1.00
H175   H     0.47946   0.06067   0.81108   0.00000  Uiso   1.00
O176   O     0.20015   0.80122   0.46534   0.00000  Uiso   1.00
O177   O     0.36787   0.47649   0.14774   0.00000  Uiso   1.00
O178   O     0.78605   0.07446   0.82720   0.00000  Uiso   1.00
N179   N     0.39452   0.76659   0.57226   0.00000  Uiso   1.00
N180   N     0.51402   0.53517   0.05854   0.00000  Uiso   1.00
N181   N     0.81202   0.96127   0.83015   0.00000  Uiso   1.00
N182   N     0.15022   0.82605   0.55845   0.00000  Uiso   1.00
N183   N     0.26972   0.59463   0.04473   0.00000  Uiso   1.00
N184   N     0.56772   0.02073   0.81634   0.00000  Uiso   1.00
C185   C     0.34725   0.42420   0.75183   0.00000  Uiso   1.00
C186   C     0.25270   0.47654   0.77136   0.00000  Uiso   1.00
C187   C     0.27633   0.54646   0.75439   0.00000  Uiso   1.00
C188   C     0.17738   0.58567   0.77708   0.00000  Uiso   1.00
C189   C     0.04851   0.67147   0.80155   0.00000  Uiso   1.00
C190   C     0.22068   0.40628   0.70758   0.00000  Uiso   1.00
C191   C     0.21740   0.41711   0.63699   0.00000  Uiso   1.00
C192   C     0.09150   0.39717   0.60599   0.00000  Uiso   1.00
C193   C     0.91299   0.37384   0.53147   0.00000  Uiso   1.00
C194   C     0.41914   0.35231   0.82483   0.00000  Uiso   1.00
C195   C     0.58273   0.31775   0.85282   0.00000  Uiso   1.00
C196   C     0.62392   0.25235   0.92054   0.00000  Uiso   1.00
C197   C     0.75354   0.14522   0.02807   0.00000  Uiso   1.00
C198   C     0.12952   0.36951   0.82229   0.00000  Uiso   1.00
C199   C     0.13444   0.44683   0.80963   0.00000  Uiso   1.00
C200   C     0.03543   0.48595   0.83235   0.00000  Uiso   1.00
C201   C     0.05891   0.55591   0.81542   0.00000  Uiso   1.00
C202   C     0.10242   0.37657   0.74585   0.00000  Uiso   1.00
C203   C     0.97651   0.35660   0.71495   0.00000  Uiso   1.00
C204   C     0.97303   0.36740   0.64434   0.00000  Uiso   1.00
C205   C     0.30088   0.32260   0.86311   0.00000  Uiso   1.00
C206   C     0.34183   0.25724   0.93079   0.00000  Uiso   1.00
C207   C     0.50544   0.22259   0.95888   0.00000  Uiso   1.00
H208   H     0.43932   0.44733   0.72203   0.00000  Uiso   1.00
H209   H     0.36785   0.56943   0.72476   0.00000  Uiso   1.00
H210   H     0.30894   0.44010   0.60739   0.00000  Uiso   1.00
H211   H     0.67421   0.34075   0.82319   0.00000  Uiso   1.00
H212   H     0.23643   0.69172   0.74465   0.00000  Uiso   1.00
H213   H     0.11225   0.41899   0.49717   0.00000  Uiso   1.00
H214   H     0.88248   0.20949   0.95223   0.00000  Uiso   1.00
H215   H     0.03744   0.34638   0.85209   0.00000  Uiso   1.00
H216   H     0.94392   0.46294   0.86197   0.00000  Uiso   1.00
H217   H     0.88502   0.33361   0.74459   0.00000  Uiso   1.00
H218   H     0.25028   0.23426   0.96039   0.00000  Uiso   1.00
H219   H     0.89234   0.60528   0.85601   0.00000  Uiso   1.00
H220   H     0.76817   0.33255   0.60853   0.00000  Uiso   1.00
H221   H     0.53840   0.12306   0.06359   0.00000  Uiso   1.00
O222   O     0.01008   0.72701   0.80446   0.00000  Uiso   1.00
O223   O     0.84719   0.36919   0.47978   0.00000  Uiso   1.00
O224   O     0.85771   0.09434   0.07681   0.00000  Uiso   1.00
N225   N     0.16830   0.65537   0.76952   0.00000  Uiso   1.00
N226   N     0.05219   0.40040   0.53813   0.00000  Uiso   1.00
N227   N     0.77229   0.20453   0.96357   0.00000  Uiso   1.00
N228   N     0.98316   0.60886   0.82944   0.00000  Uiso   1.00
N229   N     0.86704   0.35389   0.59805   0.00000  Uiso   1.00
N230   N     0.58714   0.15802   0.02349   0.00000  Uiso   1.00
C231   C     0.78047   0.81987   0.42654   0.00000  Uiso   1.00
C232   C     0.73725   0.74769   0.47907   0.00000  Uiso   1.00
C233   C     0.82985   0.69494   0.54894   0.00000  Uiso   1.00
C234   C     0.76928   0.63269   0.58836   0.00000  Uiso   1.00
C235   C     0.72463   0.52202   0.67442   0.00000  Uiso   1.00
C236   C     0.63723   0.88155   0.40883   0.00000  Uiso   1.00
C237   C     0.64575   0.94135   0.41963   0.00000  Uiso   1.00
C238   C     0.50097   0.99179   0.39991   0.00000  Uiso   1.00
C239   C     0.30106   0.08897   0.37687   0.00000  Uiso   1.00
C240   C     0.78036   0.81890   0.35454   0.00000  Uiso   1.00
C241   C     0.90920   0.82604   0.31968   0.00000  Uiso   1.00
C242   C     0.88491   0.82376   0.25424   0.00000  Uiso   1.00
C243   C     0.90722   0.82366   0.14692   0.00000  Uiso   1.00
C244   C     0.50823   0.80314   0.37229   0.00000  Uiso   1.00
C245   C     0.58938   0.73861   0.44961   0.00000  Uiso   1.00
C246   C     0.52866   0.67643   0.48893   0.00000  Uiso   1.00
C247   C     0.62115   0.62359   0.55884   0.00000  Uiso   1.00
C248   C     0.48936   0.87247   0.37937   0.00000  Uiso   1.00
C249   C     0.34455   0.92284   0.35962   0.00000  Uiso   1.00
C250   C     0.35284   0.98269   0.37039   0.00000  Uiso   1.00
C251   C     0.63249   0.80982   0.32508   0.00000  Uiso   1.00
C252   C     0.60800   0.80753   0.25967   0.00000  Uiso   1.00
C253   C     0.73678   0.81466   0.22472   0.00000  Uiso   1.00
H254   H     0.89558   0.82695   0.44948   0.00000  Uiso   1.00
H255   H     0.94428   0.70199   0.57173   0.00000  Uiso   1.00
H256   H     0.76019   0.94837   0.44243   0.00000  Uiso   1.00
H257   H     0.02360   0.83307   0.34250   0.00000  Uiso   1.00
H258   H     0.93302   0.55946   0.69428   0.00000  Uiso   1.00
H259   H     0.54488   0.07897   0.42163   0.00000  Uiso   1.00
H260   H     0.10034   0.83585   0.21091   0.00000  Uiso   1.00
H261   H     0.39310   0.79607   0.34935   0.00000  Uiso   1.00
H262   H     0.41422   0.66942   0.46611   0.00000  Uiso   1.00
H263   H     0.23014   0.91580   0.33681   0.00000  Uiso   1.00
H264   H     0.49355   0.80050   0.23689   0.00000  Uiso   1.00
H265   H     0.50280   0.53302   0.60856   0.00000  Uiso   1.00
H266   H     0.11467   0.05254   0.33590   0.00000  Uiso   1.00
H267   H     0.67012   0.80942   0.12519   0.00000  Uiso   1.00
O268   O     0.74084   0.46349   0.73004   0.00000  Uiso   1.00
O269   O     0.23164   0.14508   0.37232   0.00000  Uiso   1.00
O270   O     0.96038   0.82611   0.09587   0.00000  Uiso   1.00
N271   N     0.82888   0.57061   0.65807   0.00000  Uiso   1.00
N272   N     0.46600   0.05632   0.40317   0.00000  Uiso   1.00
N273   N     0.98529   0.82904   0.20616   0.00000  Uiso   1.00
N274   N     0.59739   0.55639   0.61195   0.00000  Uiso   1.00
N275   N     0.23451   0.04209   0.35705   0.00000  Uiso   1.00
N276   N     0.75379   0.81482   0.16003   0.00000  Uiso   1.00
