data_job_02616
_audit_creation_date              2018-12-19
_audit_creation_method            'Materials Studio'
_symmetry_space_group_name_H-M    'P1'
_symmetry_Int_Tables_number       1
_symmetry_cell_setting            triclinic
loop_
_symmetry_equiv_pos_as_xyz
  x,y,z
_cell_length_a                    23.9538
_cell_length_b                    12.7786
_cell_length_c                    18.3121
_cell_angle_alpha                 90.0000
_cell_angle_beta                  90.0000
_cell_angle_gamma                 90.0000
loop_
_atom_site_label
_atom_site_type_symbol
_atom_site_fract_x
_atom_site_fract_y
_atom_site_fract_z
_atom_site_U_iso_or_equiv
_atom_site_adp_type
_atom_site_occupancy
C1     C     0.86057   0.11317   0.29404   0.00000  Uiso   1.00
C2     C     0.80142   0.14071   0.26996   0.00000  Uiso   1.00
C3     C     0.75261   0.10782   0.30372   0.00000  Uiso   1.00
C4     C     0.70265   0.14151   0.27331   0.00000  Uiso   1.00
C5     C     0.61097   0.17446   0.24533   0.00000  Uiso   1.00
C6     C     0.88852   0.06271   0.22802   0.00000  Uiso   1.00
C7     C     0.91293   0.96425   0.22652   0.00000  Uiso   1.00
C8     C     0.93629   0.93228   0.16081   0.00000  Uiso   1.00
C9     C     0.97986   0.84417   0.06772   0.00000  Uiso   1.00
C10    C     0.89044   0.21714   0.30599   0.00000  Uiso   1.00
C11    C     0.91649   0.24851   0.37005   0.00000  Uiso   1.00
C12    C     0.94148   0.34655   0.36998   0.00000  Uiso   1.00
C13    C     0.98805   0.49821   0.39796   0.00000  Uiso   1.00
C14    C     0.85864   0.23148   0.18001   0.00000  Uiso   1.00
C15    C     0.80038   0.20497   0.20803   0.00000  Uiso   1.00
C16    C     0.75047   0.23872   0.17756   0.00000  Uiso   1.00
C17    C     0.70160   0.20589   0.21127   0.00000  Uiso   1.00
C18    C     0.88747   0.12697   0.16609   0.00000  Uiso   1.00
C19    C     0.91080   0.09514   0.10037   0.00000  Uiso   1.00
C20    C     0.93524   0.99665   0.09876   0.00000  Uiso   1.00
C21    C     0.88939   0.28140   0.24406   0.00000  Uiso   1.00
C22    C     0.91435   0.37941   0.24389   0.00000  Uiso   1.00
C23    C     0.94043   0.41092   0.30794   0.00000  Uiso   1.00
H24    H     0.86139   0.06313   0.34225   0.00000  Uiso   1.00
H25    H     0.75344   0.05808   0.35164   0.00000  Uiso   1.00
H26    H     0.91374   0.91454   0.27446   0.00000  Uiso   1.00
H27    H     0.91730   0.19876   0.41796   0.00000  Uiso   1.00
H28    H     0.63330   0.08080   0.33472   0.00000  Uiso   1.00
H29    H     0.97132   0.77813   0.17198   0.00000  Uiso   1.00
H30    H     0.97882   0.37747   0.47459   0.00000  Uiso   1.00
H31    H     0.85782   0.28151   0.13179   0.00000  Uiso   1.00
H32    H     0.74968   0.28845   0.12964   0.00000  Uiso   1.00
H33    H     0.90998   0.14490   0.05245   0.00000  Uiso   1.00
H34    H     0.91353   0.42912   0.19596   0.00000  Uiso   1.00
H35    H     0.63024   0.26777   0.15453   0.00000  Uiso   1.00
H36    H     0.96827   0.96510   0.99179   0.00000  Uiso   1.00
H37    H     0.97576   0.56443   0.29440   0.00000  Uiso   1.00
O38    O     0.56070   0.17488   0.24699   0.00000  Uiso   1.00
O39    O     0.00418   0.77780   0.03349   0.00000  Uiso   1.00
O40    O     0.01401   0.56411   0.43051   0.00000  Uiso   1.00
N41    N     0.64742   0.12387   0.29262   0.00000  Uiso   1.00
N42    N     0.96345   0.84088   0.14046   0.00000  Uiso   1.00
N43    N     0.97047   0.40120   0.42337   0.00000  Uiso   1.00
N44    N     0.64578   0.22447   0.19566   0.00000  Uiso   1.00
N45    N     0.96180   0.94149   0.04350   0.00000  Uiso   1.00
N46    N     0.96882   0.50181   0.32642   0.00000  Uiso   1.00
C47    C     0.63943   0.38683   0.79404   0.00000  Uiso   1.00
C48    C     0.69858   0.35929   0.76996   0.00000  Uiso   1.00
C49    C     0.74739   0.39218   0.80372   0.00000  Uiso   1.00
C50    C     0.79735   0.35849   0.77331   0.00000  Uiso   1.00
C51    C     0.88903   0.32554   0.74533   0.00000  Uiso   1.00
C52    C     0.61148   0.43729   0.72802   0.00000  Uiso   1.00
C53    C     0.58707   0.53575   0.72652   0.00000  Uiso   1.00
C54    C     0.56371   0.56772   0.66081   0.00000  Uiso   1.00
C55    C     0.52014   0.65583   0.56772   0.00000  Uiso   1.00
C56    C     0.60956   0.28286   0.80599   0.00000  Uiso   1.00
C57    C     0.58351   0.25149   0.87005   0.00000  Uiso   1.00
C58    C     0.55852   0.15345   0.86998   0.00000  Uiso   1.00
C59    C     0.51195   0.00179   0.89796   0.00000  Uiso   1.00
C60    C     0.64136   0.26852   0.68001   0.00000  Uiso   1.00
C61    C     0.69962   0.29503   0.70803   0.00000  Uiso   1.00
C62    C     0.74953   0.26128   0.67756   0.00000  Uiso   1.00
C63    C     0.79840   0.29411   0.71127   0.00000  Uiso   1.00
C64    C     0.61253   0.37303   0.66609   0.00000  Uiso   1.00
C65    C     0.58920   0.40486   0.60037   0.00000  Uiso   1.00
C66    C     0.56476   0.50335   0.59876   0.00000  Uiso   1.00
C67    C     0.61061   0.21860   0.74406   0.00000  Uiso   1.00
C68    C     0.58565   0.12059   0.74389   0.00000  Uiso   1.00
C69    C     0.55957   0.08908   0.80794   0.00000  Uiso   1.00
H70    H     0.63861   0.43687   0.84225   0.00000  Uiso   1.00
H71    H     0.74656   0.44192   0.85164   0.00000  Uiso   1.00
H72    H     0.58626   0.58546   0.77446   0.00000  Uiso   1.00
H73    H     0.58270   0.30124   0.91796   0.00000  Uiso   1.00
H74    H     0.86670   0.41920   0.83472   0.00000  Uiso   1.00
H75    H     0.52868   0.72187   0.67198   0.00000  Uiso   1.00
H76    H     0.52118   0.12253   0.97459   0.00000  Uiso   1.00
H77    H     0.64218   0.21849   0.63179   0.00000  Uiso   1.00
H78    H     0.75032   0.21155   0.62964   0.00000  Uiso   1.00
H79    H     0.59002   0.35510   0.55245   0.00000  Uiso   1.00
H80    H     0.58647   0.07088   0.69596   0.00000  Uiso   1.00
H81    H     0.86976   0.23223   0.65453   0.00000  Uiso   1.00
H82    H     0.53173   0.53490   0.49179   0.00000  Uiso   1.00
H83    H     0.52424   0.93557   0.79440   0.00000  Uiso   1.00
O84    O     0.93930   0.32512   0.74699   0.00000  Uiso   1.00
O85    O     0.49582   0.72220   0.53349   0.00000  Uiso   1.00
O86    O     0.48599   0.93589   0.93051   0.00000  Uiso   1.00
N87    N     0.85258   0.37613   0.79262   0.00000  Uiso   1.00
N88    N     0.53655   0.65912   0.64046   0.00000  Uiso   1.00
N89    N     0.52953   0.09880   0.92337   0.00000  Uiso   1.00
N90    N     0.85422   0.27553   0.69566   0.00000  Uiso   1.00
N91    N     0.53820   0.55851   0.54350   0.00000  Uiso   1.00
N92    N     0.53118   0.99819   0.82642   0.00000  Uiso   1.00
C93    C     0.13943   0.11317   0.20596   0.00000  Uiso   1.00
C94    C     0.19858   0.14071   0.23004   0.00000  Uiso   1.00
C95    C     0.24739   0.10782   0.19628   0.00000  Uiso   1.00
C96    C     0.29735   0.14151   0.22669   0.00000  Uiso   1.00
C97    C     0.38903   0.17446   0.25467   0.00000  Uiso   1.00
C98    C     0.11148   0.06271   0.27198   0.00000  Uiso   1.00
C99    C     0.08707   0.96425   0.27348   0.00000  Uiso   1.00
C100   C     0.06371   0.93228   0.33919   0.00000  Uiso   1.00
C101   C     0.02014   0.84417   0.43228   0.00000  Uiso   1.00
C102   C     0.10956   0.21714   0.19401   0.00000  Uiso   1.00
C103   C     0.08351   0.24851   0.12995   0.00000  Uiso   1.00
C104   C     0.05852   0.34655   0.13002   0.00000  Uiso   1.00
C105   C     0.01195   0.49821   0.10204   0.00000  Uiso   1.00
C106   C     0.14136   0.23148   0.31999   0.00000  Uiso   1.00
C107   C     0.19962   0.20497   0.29197   0.00000  Uiso   1.00
C108   C     0.24953   0.23872   0.32244   0.00000  Uiso   1.00
C109   C     0.29840   0.20589   0.28873   0.00000  Uiso   1.00
C110   C     0.11253   0.12697   0.33391   0.00000  Uiso   1.00
C111   C     0.08920   0.09514   0.39963   0.00000  Uiso   1.00
C112   C     0.06476   0.99665   0.40124   0.00000  Uiso   1.00
C113   C     0.11061   0.28140   0.25594   0.00000  Uiso   1.00
C114   C     0.08565   0.37941   0.25611   0.00000  Uiso   1.00
C115   C     0.05957   0.41092   0.19206   0.00000  Uiso   1.00
H116   H     0.13861   0.06313   0.15775   0.00000  Uiso   1.00
H117   H     0.24656   0.05808   0.14836   0.00000  Uiso   1.00
H118   H     0.08626   0.91454   0.22554   0.00000  Uiso   1.00
H119   H     0.08270   0.19876   0.08204   0.00000  Uiso   1.00
H120   H     0.36670   0.08080   0.16528   0.00000  Uiso   1.00
H121   H     0.02868   0.77813   0.32802   0.00000  Uiso   1.00
H122   H     0.02118   0.37747   0.02541   0.00000  Uiso   1.00
H123   H     0.14218   0.28151   0.36821   0.00000  Uiso   1.00
H124   H     0.25032   0.28845   0.37036   0.00000  Uiso   1.00
H125   H     0.09002   0.14490   0.44755   0.00000  Uiso   1.00
H126   H     0.08647   0.42912   0.30404   0.00000  Uiso   1.00
H127   H     0.36976   0.26777   0.34547   0.00000  Uiso   1.00
H128   H     0.03173   0.96510   0.50821   0.00000  Uiso   1.00
H129   H     0.02424   0.56443   0.20560   0.00000  Uiso   1.00
O130   O     0.43930   0.17488   0.25301   0.00000  Uiso   1.00
O131   O     0.99582   0.77780   0.46651   0.00000  Uiso   1.00
O132   O     0.98599   0.56411   0.06949   0.00000  Uiso   1.00
N133   N     0.35258   0.12387   0.20738   0.00000  Uiso   1.00
N134   N     0.03655   0.84088   0.35954   0.00000  Uiso   1.00
N135   N     0.02953   0.40120   0.07663   0.00000  Uiso   1.00
N136   N     0.35422   0.22447   0.30434   0.00000  Uiso   1.00
N137   N     0.03820   0.94149   0.45650   0.00000  Uiso   1.00
N138   N     0.03118   0.50181   0.17358   0.00000  Uiso   1.00
C139   C     0.36057   0.38683   0.70596   0.00000  Uiso   1.00
C140   C     0.30142   0.35929   0.73004   0.00000  Uiso   1.00
C141   C     0.25261   0.39218   0.69628   0.00000  Uiso   1.00
C142   C     0.20265   0.35849   0.72669   0.00000  Uiso   1.00
C143   C     0.11097   0.32554   0.75467   0.00000  Uiso   1.00
C144   C     0.38852   0.43729   0.77198   0.00000  Uiso   1.00
C145   C     0.41293   0.53575   0.77348   0.00000  Uiso   1.00
C146   C     0.43629   0.56772   0.83919   0.00000  Uiso   1.00
C147   C     0.47986   0.65583   0.93228   0.00000  Uiso   1.00
C148   C     0.39044   0.28286   0.69401   0.00000  Uiso   1.00
C149   C     0.41649   0.25149   0.62995   0.00000  Uiso   1.00
C150   C     0.44148   0.15345   0.63002   0.00000  Uiso   1.00
C151   C     0.48805   0.00179   0.60204   0.00000  Uiso   1.00
C152   C     0.35864   0.26852   0.81999   0.00000  Uiso   1.00
C153   C     0.30038   0.29503   0.79197   0.00000  Uiso   1.00
C154   C     0.25047   0.26128   0.82244   0.00000  Uiso   1.00
C155   C     0.20160   0.29411   0.78873   0.00000  Uiso   1.00
C156   C     0.38747   0.37303   0.83391   0.00000  Uiso   1.00
C157   C     0.41080   0.40486   0.89963   0.00000  Uiso   1.00
C158   C     0.43524   0.50335   0.90124   0.00000  Uiso   1.00
C159   C     0.38939   0.21860   0.75594   0.00000  Uiso   1.00
C160   C     0.41435   0.12059   0.75611   0.00000  Uiso   1.00
C161   C     0.44043   0.08908   0.69206   0.00000  Uiso   1.00
H162   H     0.36139   0.43687   0.65775   0.00000  Uiso   1.00
H163   H     0.25344   0.44192   0.64836   0.00000  Uiso   1.00
H164   H     0.41374   0.58546   0.72554   0.00000  Uiso   1.00
H165   H     0.41730   0.30124   0.58204   0.00000  Uiso   1.00
H166   H     0.13330   0.41920   0.66528   0.00000  Uiso   1.00
H167   H     0.47132   0.72187   0.82802   0.00000  Uiso   1.00
H168   H     0.47882   0.12253   0.52541   0.00000  Uiso   1.00
H169   H     0.35782   0.21849   0.86821   0.00000  Uiso   1.00
H170   H     0.24968   0.21155   0.87036   0.00000  Uiso   1.00
H171   H     0.40998   0.35510   0.94755   0.00000  Uiso   1.00
H172   H     0.41353   0.07088   0.80404   0.00000  Uiso   1.00
H173   H     0.13024   0.23223   0.84547   0.00000  Uiso   1.00
H174   H     0.46827   0.53490   0.00821   0.00000  Uiso   1.00
H175   H     0.47576   0.93557   0.70560   0.00000  Uiso   1.00
O176   O     0.06070   0.32512   0.75301   0.00000  Uiso   1.00
O177   O     0.50418   0.72220   0.96651   0.00000  Uiso   1.00
O178   O     0.51401   0.93589   0.56949   0.00000  Uiso   1.00
N179   N     0.14742   0.37613   0.70738   0.00000  Uiso   1.00
N180   N     0.46345   0.65912   0.85954   0.00000  Uiso   1.00
N181   N     0.47047   0.09880   0.57663   0.00000  Uiso   1.00
N182   N     0.14578   0.27553   0.80434   0.00000  Uiso   1.00
N183   N     0.46180   0.55851   0.95650   0.00000  Uiso   1.00
N184   N     0.46882   0.99819   0.67358   0.00000  Uiso   1.00
C185   C     0.13943   0.88683   0.70596   0.00000  Uiso   1.00
C186   C     0.19858   0.85929   0.73004   0.00000  Uiso   1.00
C187   C     0.24739   0.89218   0.69628   0.00000  Uiso   1.00
C188   C     0.29735   0.85849   0.72669   0.00000  Uiso   1.00
C189   C     0.38903   0.82554   0.75467   0.00000  Uiso   1.00
C190   C     0.11148   0.93729   0.77198   0.00000  Uiso   1.00
C191   C     0.08707   0.03575   0.77348   0.00000  Uiso   1.00
C192   C     0.06371   0.06772   0.83919   0.00000  Uiso   1.00
C193   C     0.02014   0.15583   0.93228   0.00000  Uiso   1.00
C194   C     0.10956   0.78286   0.69401   0.00000  Uiso   1.00
C195   C     0.08351   0.75149   0.62995   0.00000  Uiso   1.00
C196   C     0.05852   0.65345   0.63002   0.00000  Uiso   1.00
C197   C     0.01195   0.50179   0.60204   0.00000  Uiso   1.00
C198   C     0.14136   0.76852   0.81999   0.00000  Uiso   1.00
C199   C     0.19962   0.79503   0.79197   0.00000  Uiso   1.00
C200   C     0.24953   0.76128   0.82244   0.00000  Uiso   1.00
C201   C     0.29840   0.79411   0.78873   0.00000  Uiso   1.00
C202   C     0.11253   0.87303   0.83391   0.00000  Uiso   1.00
C203   C     0.08920   0.90486   0.89963   0.00000  Uiso   1.00
C204   C     0.06476   0.00335   0.90124   0.00000  Uiso   1.00
C205   C     0.11061   0.71860   0.75594   0.00000  Uiso   1.00
C206   C     0.08565   0.62059   0.75611   0.00000  Uiso   1.00
C207   C     0.05957   0.58908   0.69206   0.00000  Uiso   1.00
H208   H     0.13861   0.93687   0.65775   0.00000  Uiso   1.00
H209   H     0.24656   0.94192   0.64836   0.00000  Uiso   1.00
H210   H     0.08626   0.08546   0.72554   0.00000  Uiso   1.00
H211   H     0.08270   0.80124   0.58204   0.00000  Uiso   1.00
H212   H     0.36670   0.91920   0.66528   0.00000  Uiso   1.00
H213   H     0.02868   0.22187   0.82802   0.00000  Uiso   1.00
H214   H     0.02118   0.62253   0.52541   0.00000  Uiso   1.00
H215   H     0.14218   0.71849   0.86821   0.00000  Uiso   1.00
H216   H     0.25032   0.71155   0.87036   0.00000  Uiso   1.00
H217   H     0.09002   0.85510   0.94755   0.00000  Uiso   1.00
H218   H     0.08647   0.57088   0.80404   0.00000  Uiso   1.00
H219   H     0.36976   0.73223   0.84547   0.00000  Uiso   1.00
H220   H     0.03173   0.03490   0.00821   0.00000  Uiso   1.00
H221   H     0.02424   0.43557   0.70560   0.00000  Uiso   1.00
O222   O     0.43930   0.82512   0.75301   0.00000  Uiso   1.00
O223   O     0.99582   0.22220   0.96651   0.00000  Uiso   1.00
O224   O     0.98599   0.43589   0.56949   0.00000  Uiso   1.00
N225   N     0.35258   0.87613   0.70738   0.00000  Uiso   1.00
N226   N     0.03655   0.15912   0.85954   0.00000  Uiso   1.00
N227   N     0.02953   0.59880   0.57663   0.00000  Uiso   1.00
N228   N     0.35422   0.77553   0.80434   0.00000  Uiso   1.00
N229   N     0.03820   0.05851   0.95650   0.00000  Uiso   1.00
N230   N     0.03118   0.49819   0.67358   0.00000  Uiso   1.00
C231   C     0.36057   0.61317   0.20596   0.00000  Uiso   1.00
C232   C     0.30142   0.64071   0.23004   0.00000  Uiso   1.00
C233   C     0.25261   0.60782   0.19628   0.00000  Uiso   1.00
C234   C     0.20265   0.64151   0.22669   0.00000  Uiso   1.00
C235   C     0.11097   0.67446   0.25467   0.00000  Uiso   1.00
C236   C     0.38852   0.56271   0.27198   0.00000  Uiso   1.00
C237   C     0.41293   0.46425   0.27348   0.00000  Uiso   1.00
C238   C     0.43629   0.43228   0.33919   0.00000  Uiso   1.00
C239   C     0.47986   0.34417   0.43228   0.00000  Uiso   1.00
C240   C     0.39044   0.71714   0.19401   0.00000  Uiso   1.00
C241   C     0.41649   0.74851   0.12995   0.00000  Uiso   1.00
C242   C     0.44148   0.84655   0.13002   0.00000  Uiso   1.00
C243   C     0.48805   0.99821   0.10204   0.00000  Uiso   1.00
C244   C     0.35864   0.73148   0.31999   0.00000  Uiso   1.00
C245   C     0.30038   0.70497   0.29197   0.00000  Uiso   1.00
C246   C     0.25047   0.73872   0.32244   0.00000  Uiso   1.00
C247   C     0.20160   0.70589   0.28873   0.00000  Uiso   1.00
C248   C     0.38747   0.62697   0.33391   0.00000  Uiso   1.00
C249   C     0.41080   0.59514   0.39963   0.00000  Uiso   1.00
C250   C     0.43524   0.49665   0.40124   0.00000  Uiso   1.00
C251   C     0.38939   0.78140   0.25594   0.00000  Uiso   1.00
C252   C     0.41435   0.87941   0.25611   0.00000  Uiso   1.00
C253   C     0.44043   0.91092   0.19206   0.00000  Uiso   1.00
H254   H     0.36139   0.56313   0.15775   0.00000  Uiso   1.00
H255   H     0.25344   0.55808   0.14836   0.00000  Uiso   1.00
H256   H     0.41374   0.41454   0.22554   0.00000  Uiso   1.00
H257   H     0.41730   0.69876   0.08204   0.00000  Uiso   1.00
H258   H     0.13330   0.58080   0.16528   0.00000  Uiso   1.00
H259   H     0.47132   0.27813   0.32802   0.00000  Uiso   1.00
H260   H     0.47882   0.87747   0.02541   0.00000  Uiso   1.00
H261   H     0.35782   0.78151   0.36821   0.00000  Uiso   1.00
H262   H     0.24968   0.78845   0.37036   0.00000  Uiso   1.00
H263   H     0.40998   0.64490   0.44755   0.00000  Uiso   1.00
H264   H     0.41353   0.92912   0.30404   0.00000  Uiso   1.00
H265   H     0.13024   0.76777   0.34547   0.00000  Uiso   1.00
H266   H     0.46827   0.46510   0.50821   0.00000  Uiso   1.00
H267   H     0.47576   0.06443   0.20560   0.00000  Uiso   1.00
O268   O     0.06070   0.67488   0.25301   0.00000  Uiso   1.00
O269   O     0.50418   0.27780   0.46651   0.00000  Uiso   1.00
O270   O     0.51401   0.06411   0.06949   0.00000  Uiso   1.00
N271   N     0.14742   0.62387   0.20738   0.00000  Uiso   1.00
N272   N     0.46345   0.34088   0.35954   0.00000  Uiso   1.00
N273   N     0.47047   0.90120   0.07663   0.00000  Uiso   1.00
N274   N     0.14578   0.72447   0.30434   0.00000  Uiso   1.00
N275   N     0.46180   0.44149   0.45650   0.00000  Uiso   1.00
N276   N     0.46882   0.00181   0.17358   0.00000  Uiso   1.00
C277   C     0.86057   0.88683   0.79404   0.00000  Uiso   1.00
C278   C     0.80142   0.85929   0.76996   0.00000  Uiso   1.00
C279   C     0.75261   0.89218   0.80372   0.00000  Uiso   1.00
C280   C     0.70265   0.85849   0.77331   0.00000  Uiso   1.00
C281   C     0.61097   0.82554   0.74533   0.00000  Uiso   1.00
C282   C     0.88852   0.93729   0.72802   0.00000  Uiso   1.00
C283   C     0.91293   0.03575   0.72652   0.00000  Uiso   1.00
C284   C     0.93629   0.06772   0.66081   0.00000  Uiso   1.00
C285   C     0.97986   0.15583   0.56772   0.00000  Uiso   1.00
C286   C     0.89044   0.78286   0.80599   0.00000  Uiso   1.00
C287   C     0.91649   0.75149   0.87005   0.00000  Uiso   1.00
C288   C     0.94148   0.65345   0.86998   0.00000  Uiso   1.00
C289   C     0.98805   0.50179   0.89796   0.00000  Uiso   1.00
C290   C     0.85864   0.76852   0.68001   0.00000  Uiso   1.00
C291   C     0.80038   0.79503   0.70803   0.00000  Uiso   1.00
C292   C     0.75047   0.76128   0.67756   0.00000  Uiso   1.00
C293   C     0.70160   0.79411   0.71127   0.00000  Uiso   1.00
C294   C     0.88747   0.87303   0.66609   0.00000  Uiso   1.00
C295   C     0.91080   0.90486   0.60037   0.00000  Uiso   1.00
C296   C     0.93524   0.00335   0.59876   0.00000  Uiso   1.00
C297   C     0.88939   0.71860   0.74406   0.00000  Uiso   1.00
C298   C     0.91435   0.62059   0.74389   0.00000  Uiso   1.00
C299   C     0.94043   0.58908   0.80794   0.00000  Uiso   1.00
H300   H     0.86139   0.93687   0.84225   0.00000  Uiso   1.00
H301   H     0.75344   0.94192   0.85164   0.00000  Uiso   1.00
H302   H     0.91374   0.08546   0.77446   0.00000  Uiso   1.00
H303   H     0.91730   0.80124   0.91796   0.00000  Uiso   1.00
H304   H     0.63330   0.91920   0.83472   0.00000  Uiso   1.00
H305   H     0.97132   0.22187   0.67198   0.00000  Uiso   1.00
H306   H     0.97882   0.62253   0.97459   0.00000  Uiso   1.00
H307   H     0.85782   0.71849   0.63179   0.00000  Uiso   1.00
H308   H     0.74968   0.71155   0.62964   0.00000  Uiso   1.00
H309   H     0.90998   0.85510   0.55245   0.00000  Uiso   1.00
H310   H     0.91353   0.57088   0.69596   0.00000  Uiso   1.00
H311   H     0.63024   0.73223   0.65453   0.00000  Uiso   1.00
H312   H     0.96827   0.03490   0.49179   0.00000  Uiso   1.00
H313   H     0.97576   0.43557   0.79440   0.00000  Uiso   1.00
O314   O     0.56070   0.82512   0.74699   0.00000  Uiso   1.00
O315   O     0.00418   0.22220   0.53349   0.00000  Uiso   1.00
O316   O     0.01401   0.43589   0.93051   0.00000  Uiso   1.00
N317   N     0.64742   0.87613   0.79262   0.00000  Uiso   1.00
N318   N     0.96345   0.15912   0.64046   0.00000  Uiso   1.00
N319   N     0.97047   0.59880   0.92337   0.00000  Uiso   1.00
N320   N     0.64578   0.77553   0.69566   0.00000  Uiso   1.00
N321   N     0.96180   0.05851   0.54350   0.00000  Uiso   1.00
N322   N     0.96882   0.49819   0.82642   0.00000  Uiso   1.00
C323   C     0.63943   0.61317   0.29404   0.00000  Uiso   1.00
C324   C     0.69858   0.64071   0.26996   0.00000  Uiso   1.00
C325   C     0.74739   0.60782   0.30372   0.00000  Uiso   1.00
C326   C     0.79735   0.64151   0.27331   0.00000  Uiso   1.00
C327   C     0.88903   0.67446   0.24533   0.00000  Uiso   1.00
C328   C     0.61148   0.56271   0.22802   0.00000  Uiso   1.00
C329   C     0.58707   0.46425   0.22652   0.00000  Uiso   1.00
C330   C     0.56371   0.43228   0.16081   0.00000  Uiso   1.00
C331   C     0.52014   0.34417   0.06772   0.00000  Uiso   1.00
C332   C     0.60956   0.71714   0.30599   0.00000  Uiso   1.00
C333   C     0.58351   0.74851   0.37005   0.00000  Uiso   1.00
C334   C     0.55852   0.84655   0.36998   0.00000  Uiso   1.00
C335   C     0.51195   0.99821   0.39796   0.00000  Uiso   1.00
C336   C     0.64136   0.73148   0.18001   0.00000  Uiso   1.00
C337   C     0.69962   0.70497   0.20803   0.00000  Uiso   1.00
C338   C     0.74953   0.73872   0.17756   0.00000  Uiso   1.00
C339   C     0.79840   0.70589   0.21127   0.00000  Uiso   1.00
C340   C     0.61253   0.62697   0.16609   0.00000  Uiso   1.00
C341   C     0.58920   0.59514   0.10037   0.00000  Uiso   1.00
C342   C     0.56476   0.49665   0.09876   0.00000  Uiso   1.00
C343   C     0.61061   0.78140   0.24406   0.00000  Uiso   1.00
C344   C     0.58565   0.87941   0.24389   0.00000  Uiso   1.00
C345   C     0.55957   0.91092   0.30794   0.00000  Uiso   1.00
H346   H     0.63861   0.56313   0.34225   0.00000  Uiso   1.00
H347   H     0.74656   0.55808   0.35164   0.00000  Uiso   1.00
H348   H     0.58626   0.41454   0.27446   0.00000  Uiso   1.00
H349   H     0.58270   0.69876   0.41796   0.00000  Uiso   1.00
H350   H     0.86670   0.58080   0.33472   0.00000  Uiso   1.00
H351   H     0.52868   0.27813   0.17198   0.00000  Uiso   1.00
H352   H     0.52118   0.87747   0.47459   0.00000  Uiso   1.00
H353   H     0.64218   0.78151   0.13179   0.00000  Uiso   1.00
H354   H     0.75032   0.78845   0.12964   0.00000  Uiso   1.00
H355   H     0.59002   0.64490   0.05245   0.00000  Uiso   1.00
H356   H     0.58647   0.92912   0.19596   0.00000  Uiso   1.00
H357   H     0.86976   0.76777   0.15453   0.00000  Uiso   1.00
H358   H     0.53173   0.46510   0.99179   0.00000  Uiso   1.00
H359   H     0.52424   0.06443   0.29440   0.00000  Uiso   1.00
O360   O     0.93930   0.67488   0.24699   0.00000  Uiso   1.00
O361   O     0.49582   0.27780   0.03349   0.00000  Uiso   1.00
O362   O     0.48599   0.06411   0.43051   0.00000  Uiso   1.00
N363   N     0.85258   0.62387   0.29262   0.00000  Uiso   1.00
N364   N     0.53655   0.34088   0.14046   0.00000  Uiso   1.00
N365   N     0.52953   0.90120   0.42337   0.00000  Uiso   1.00
N366   N     0.85422   0.72447   0.19566   0.00000  Uiso   1.00
N367   N     0.53820   0.44149   0.04350   0.00000  Uiso   1.00
N368   N     0.53118   0.00181   0.32642   0.00000  Uiso   1.00
