data_job_00612
_audit_creation_date              2018-12-19
_audit_creation_method            'Materials Studio'
_symmetry_space_group_name_H-M    'P1'
_symmetry_Int_Tables_number       1
_symmetry_cell_setting            triclinic
loop_
_symmetry_equiv_pos_as_xyz
  x,y,z
_cell_length_a                    14.1626
_cell_length_b                    13.4909
_cell_length_c                    12.2665
_cell_angle_alpha                 90.0000
_cell_angle_beta                  90.0000
_cell_angle_gamma                 90.0000
loop_
_atom_site_label
_atom_site_type_symbol
_atom_site_fract_x
_atom_site_fract_y
_atom_site_fract_z
_atom_site_U_iso_or_equiv
_atom_site_adp_type
_atom_site_occupancy
C1     C     0.39514   0.66528   0.71295   0.00000  Uiso   1.00
C2     C     0.44455   0.69883   0.81706   0.00000  Uiso   1.00
C3     C     0.42419   0.78426   0.87553   0.00000  Uiso   1.00
C4     C     0.47740   0.80178   0.96862   0.00000  Uiso   1.00
C5     C     0.54335   0.86388   0.12518   0.00000  Uiso   1.00
C6     C     0.47266   0.65287   0.62775   0.00000  Uiso   1.00
C7     C     0.47592   0.69964   0.52705   0.00000  Uiso   1.00
C8     C     0.55279   0.67846   0.46077   0.00000  Uiso   1.00
C9     C     0.66234   0.66915   0.32340   0.00000  Uiso   1.00
C10    C     0.35779   0.56137   0.73606   0.00000  Uiso   1.00
C11    C     0.26448   0.53121   0.72640   0.00000  Uiso   1.00
C12    C     0.24464   0.43299   0.75128   0.00000  Uiso   1.00
C13    C     0.17584   0.28162   0.78207   0.00000  Uiso   1.00
C14    C     0.52583   0.54449   0.77428   0.00000  Uiso   1.00
C15    C     0.51554   0.63322   0.85037   0.00000  Uiso   1.00
C16    C     0.56879   0.65061   0.94339   0.00000  Uiso   1.00
C17    C     0.54852   0.73605   0.00200   0.00000  Uiso   1.00
C18    C     0.54364   0.58726   0.66106   0.00000  Uiso   1.00
C19    C     0.62052   0.56600   0.59491   0.00000  Uiso   1.00
C20    C     0.62391   0.61274   0.49414   0.00000  Uiso   1.00
C21    C     0.42878   0.49576   0.76938   0.00000  Uiso   1.00
C22    C     0.40908   0.39757   0.79427   0.00000  Uiso   1.00
C23    C     0.31576   0.36726   0.78465   0.00000  Uiso   1.00
H24    H     0.33988   0.71636   0.68700   0.00000  Uiso   1.00
H25    H     0.36926   0.83502   0.84972   0.00000  Uiso   1.00
H26    H     0.42098   0.75040   0.50129   0.00000  Uiso   1.00
H27    H     0.20957   0.58200   0.70062   0.00000  Uiso   1.00
H28    H     0.43316   0.93766   0.04479   0.00000  Uiso   1.00
H29    H     0.54219   0.75922   0.31009   0.00000  Uiso   1.00
H30    H     0.09639   0.40411   0.73040   0.00000  Uiso   1.00
H31    H     0.58110   0.49341   0.80022   0.00000  Uiso   1.00
H32    H     0.62372   0.59983   0.96915   0.00000  Uiso   1.00
H33    H     0.67544   0.51522   0.62072   0.00000  Uiso   1.00
H34    H     0.46403   0.34682   0.82004   0.00000  Uiso   1.00
H35    H     0.63969   0.74677   0.14172   0.00000  Uiso   1.00
H36    H     0.74872   0.56833   0.40702   0.00000  Uiso   1.00
H37    H     0.30293   0.21323   0.82733   0.00000  Uiso   1.00
O38    O     0.56013   0.91626   0.20232   0.00000  Uiso   1.00
O39    O     0.70316   0.68215   0.23842   0.00000  Uiso   1.00
O40    O     0.11829   0.21626   0.78986   0.00000  Uiso   1.00
N41    N     0.47591   0.87812   0.04443   0.00000  Uiso   1.00
N42    N     0.57785   0.71130   0.35754   0.00000  Uiso   1.00
N43    N     0.16107   0.37930   0.75046   0.00000  Uiso   1.00
N44    N     0.58704   0.77540   0.09659   0.00000  Uiso   1.00
N45    N     0.68898   0.60859   0.40970   0.00000  Uiso   1.00
N46    N     0.27220   0.27658   0.80262   0.00000  Uiso   1.00
C47    C     0.10486   0.33472   0.21295   0.00000  Uiso   1.00
C48    C     0.05545   0.30117   0.31706   0.00000  Uiso   1.00
C49    C     0.07581   0.21574   0.37553   0.00000  Uiso   1.00
C50    C     0.02260   0.19822   0.46862   0.00000  Uiso   1.00
C51    C     0.95665   0.13612   0.62518   0.00000  Uiso   1.00
C52    C     0.02734   0.34713   0.12775   0.00000  Uiso   1.00
C53    C     0.02408   0.30036   0.02705   0.00000  Uiso   1.00
C54    C     0.94721   0.32154   0.96077   0.00000  Uiso   1.00
C55    C     0.83766   0.33085   0.82340   0.00000  Uiso   1.00
C56    C     0.14221   0.43863   0.23606   0.00000  Uiso   1.00
C57    C     0.23552   0.46879   0.22640   0.00000  Uiso   1.00
C58    C     0.25536   0.56701   0.25128   0.00000  Uiso   1.00
C59    C     0.32416   0.71838   0.28207   0.00000  Uiso   1.00
C60    C     0.97417   0.45551   0.27428   0.00000  Uiso   1.00
C61    C     0.98446   0.36678   0.35037   0.00000  Uiso   1.00
C62    C     0.93121   0.34939   0.44339   0.00000  Uiso   1.00
C63    C     0.95148   0.26395   0.50200   0.00000  Uiso   1.00
C64    C     0.95636   0.41274   0.16106   0.00000  Uiso   1.00
C65    C     0.87948   0.43400   0.09491   0.00000  Uiso   1.00
C66    C     0.87609   0.38726   0.99414   0.00000  Uiso   1.00
C67    C     0.07122   0.50424   0.26938   0.00000  Uiso   1.00
C68    C     0.09092   0.60243   0.29427   0.00000  Uiso   1.00
C69    C     0.18424   0.63274   0.28465   0.00000  Uiso   1.00
H70    H     0.16012   0.28364   0.18700   0.00000  Uiso   1.00
H71    H     0.13074   0.16498   0.34972   0.00000  Uiso   1.00
H72    H     0.07902   0.24960   0.00129   0.00000  Uiso   1.00
H73    H     0.29043   0.41800   0.20062   0.00000  Uiso   1.00
H74    H     0.06684   0.06234   0.54479   0.00000  Uiso   1.00
H75    H     0.95781   0.24078   0.81009   0.00000  Uiso   1.00
H76    H     0.40361   0.59589   0.23040   0.00000  Uiso   1.00
H77    H     0.91890   0.50659   0.30022   0.00000  Uiso   1.00
H78    H     0.87628   0.40017   0.46915   0.00000  Uiso   1.00
H79    H     0.82456   0.48478   0.12072   0.00000  Uiso   1.00
H80    H     0.03597   0.65318   0.32004   0.00000  Uiso   1.00
H81    H     0.86031   0.25323   0.64172   0.00000  Uiso   1.00
H82    H     0.75128   0.43167   0.90702   0.00000  Uiso   1.00
H83    H     0.19707   0.78677   0.32733   0.00000  Uiso   1.00
O84    O     0.93987   0.08374   0.70232   0.00000  Uiso   1.00
O85    O     0.79684   0.31785   0.73842   0.00000  Uiso   1.00
O86    O     0.38171   0.78374   0.28986   0.00000  Uiso   1.00
N87    N     0.02409   0.12188   0.54443   0.00000  Uiso   1.00
N88    N     0.92215   0.28870   0.85754   0.00000  Uiso   1.00
N89    N     0.33893   0.62070   0.25046   0.00000  Uiso   1.00
N90    N     0.91296   0.22460   0.59659   0.00000  Uiso   1.00
N91    N     0.81102   0.39141   0.90970   0.00000  Uiso   1.00
N92    N     0.22780   0.72342   0.30262   0.00000  Uiso   1.00
C93    C     0.60486   0.16528   0.78705   0.00000  Uiso   1.00
C94    C     0.55545   0.19883   0.68294   0.00000  Uiso   1.00
C95    C     0.57581   0.28426   0.62447   0.00000  Uiso   1.00
C96    C     0.52260   0.30178   0.53138   0.00000  Uiso   1.00
C97    C     0.45665   0.36388   0.37482   0.00000  Uiso   1.00
C98    C     0.52734   0.15287   0.87225   0.00000  Uiso   1.00
C99    C     0.52408   0.19964   0.97295   0.00000  Uiso   1.00
C100   C     0.44721   0.17846   0.03923   0.00000  Uiso   1.00
C101   C     0.33766   0.16915   0.17660   0.00000  Uiso   1.00
C102   C     0.64221   0.06137   0.76394   0.00000  Uiso   1.00
C103   C     0.73552   0.03121   0.77360   0.00000  Uiso   1.00
C104   C     0.75536   0.93299   0.74872   0.00000  Uiso   1.00
C105   C     0.82416   0.78162   0.71793   0.00000  Uiso   1.00
C106   C     0.47417   0.04449   0.72572   0.00000  Uiso   1.00
C107   C     0.48446   0.13322   0.64963   0.00000  Uiso   1.00
C108   C     0.43121   0.15061   0.55661   0.00000  Uiso   1.00
C109   C     0.45148   0.23605   0.49800   0.00000  Uiso   1.00
C110   C     0.45636   0.08726   0.83894   0.00000  Uiso   1.00
C111   C     0.37948   0.06600   0.90509   0.00000  Uiso   1.00
C112   C     0.37609   0.11274   0.00586   0.00000  Uiso   1.00
C113   C     0.57122   0.99576   0.73062   0.00000  Uiso   1.00
C114   C     0.59092   0.89757   0.70573   0.00000  Uiso   1.00
C115   C     0.68424   0.86726   0.71535   0.00000  Uiso   1.00
H116   H     0.66012   0.21636   0.81300   0.00000  Uiso   1.00
H117   H     0.63074   0.33502   0.65028   0.00000  Uiso   1.00
H118   H     0.57902   0.25040   0.99871   0.00000  Uiso   1.00
H119   H     0.79043   0.08200   0.79938   0.00000  Uiso   1.00
H120   H     0.56684   0.43766   0.45521   0.00000  Uiso   1.00
H121   H     0.45781   0.25922   0.18991   0.00000  Uiso   1.00
H122   H     0.90361   0.90411   0.76960   0.00000  Uiso   1.00
H123   H     0.41890   0.99341   0.69978   0.00000  Uiso   1.00
H124   H     0.37628   0.09983   0.53085   0.00000  Uiso   1.00
H125   H     0.32456   0.01522   0.87928   0.00000  Uiso   1.00
H126   H     0.53597   0.84682   0.67996   0.00000  Uiso   1.00
H127   H     0.36031   0.24677   0.35828   0.00000  Uiso   1.00
H128   H     0.25128   0.06833   0.09298   0.00000  Uiso   1.00
H129   H     0.69707   0.71323   0.67267   0.00000  Uiso   1.00
O130   O     0.43987   0.41626   0.29768   0.00000  Uiso   1.00
O131   O     0.29684   0.18215   0.26158   0.00000  Uiso   1.00
O132   O     0.88171   0.71626   0.71014   0.00000  Uiso   1.00
N133   N     0.52409   0.37812   0.45557   0.00000  Uiso   1.00
N134   N     0.42215   0.21130   0.14246   0.00000  Uiso   1.00
N135   N     0.83893   0.87930   0.74954   0.00000  Uiso   1.00
N136   N     0.41296   0.27540   0.40341   0.00000  Uiso   1.00
N137   N     0.31102   0.10859   0.09030   0.00000  Uiso   1.00
N138   N     0.72780   0.77658   0.69738   0.00000  Uiso   1.00
C139   C     0.89514   0.83472   0.28705   0.00000  Uiso   1.00
C140   C     0.94455   0.80117   0.18294   0.00000  Uiso   1.00
C141   C     0.92419   0.71574   0.12447   0.00000  Uiso   1.00
C142   C     0.97740   0.69822   0.03138   0.00000  Uiso   1.00
C143   C     0.04335   0.63612   0.87482   0.00000  Uiso   1.00
C144   C     0.97266   0.84713   0.37225   0.00000  Uiso   1.00
C145   C     0.97592   0.80036   0.47295   0.00000  Uiso   1.00
C146   C     0.05279   0.82154   0.53923   0.00000  Uiso   1.00
C147   C     0.16234   0.83085   0.67660   0.00000  Uiso   1.00
C148   C     0.85779   0.93863   0.26394   0.00000  Uiso   1.00
C149   C     0.76448   0.96879   0.27360   0.00000  Uiso   1.00
C150   C     0.74464   0.06701   0.24872   0.00000  Uiso   1.00
C151   C     0.67584   0.21838   0.21793   0.00000  Uiso   1.00
C152   C     0.02583   0.95551   0.22572   0.00000  Uiso   1.00
C153   C     0.01554   0.86678   0.14963   0.00000  Uiso   1.00
C154   C     0.06879   0.84939   0.05661   0.00000  Uiso   1.00
C155   C     0.04852   0.76395   0.99800   0.00000  Uiso   1.00
C156   C     0.04364   0.91274   0.33894   0.00000  Uiso   1.00
C157   C     0.12052   0.93400   0.40509   0.00000  Uiso   1.00
C158   C     0.12391   0.88726   0.50586   0.00000  Uiso   1.00
C159   C     0.92878   0.00424   0.23062   0.00000  Uiso   1.00
C160   C     0.90908   0.10243   0.20573   0.00000  Uiso   1.00
C161   C     0.81576   0.13274   0.21535   0.00000  Uiso   1.00
H162   H     0.83988   0.78364   0.31300   0.00000  Uiso   1.00
H163   H     0.86926   0.66498   0.15028   0.00000  Uiso   1.00
H164   H     0.92098   0.74960   0.49871   0.00000  Uiso   1.00
H165   H     0.70957   0.91800   0.29938   0.00000  Uiso   1.00
H166   H     0.93316   0.56234   0.95521   0.00000  Uiso   1.00
H167   H     0.04219   0.74078   0.68991   0.00000  Uiso   1.00
H168   H     0.59639   0.09589   0.26960   0.00000  Uiso   1.00
H169   H     0.08110   0.00659   0.19978   0.00000  Uiso   1.00
H170   H     0.12372   0.90017   0.03085   0.00000  Uiso   1.00
H171   H     0.17544   0.98478   0.37928   0.00000  Uiso   1.00
H172   H     0.96403   0.15318   0.17996   0.00000  Uiso   1.00
H173   H     0.13969   0.75323   0.85828   0.00000  Uiso   1.00
H174   H     0.24872   0.93167   0.59298   0.00000  Uiso   1.00
H175   H     0.80293   0.28677   0.17267   0.00000  Uiso   1.00
O176   O     0.06013   0.58374   0.79768   0.00000  Uiso   1.00
O177   O     0.20316   0.81785   0.76158   0.00000  Uiso   1.00
O178   O     0.61829   0.28374   0.21014   0.00000  Uiso   1.00
N179   N     0.97591   0.62188   0.95557   0.00000  Uiso   1.00
N180   N     0.07785   0.78870   0.64246   0.00000  Uiso   1.00
N181   N     0.66107   0.12070   0.24954   0.00000  Uiso   1.00
N182   N     0.08704   0.72460   0.90341   0.00000  Uiso   1.00
N183   N     0.18898   0.89141   0.59030   0.00000  Uiso   1.00
N184   N     0.77220   0.22342   0.19738   0.00000  Uiso   1.00
