data_job_01477
_audit_creation_date              2018-12-19
_audit_creation_method            'Materials Studio'
_symmetry_space_group_name_H-M    'P1'
_symmetry_Int_Tables_number       1
_symmetry_cell_setting            triclinic
loop_
_symmetry_equiv_pos_as_xyz
  x,y,z
_cell_length_a                    37.7205
_cell_length_b                    10.3655
_cell_length_c                    13.5049
_cell_angle_alpha                 90.0000
_cell_angle_beta                  104.6872
_cell_angle_gamma                 90.0000
loop_
_atom_site_label
_atom_site_type_symbol
_atom_site_fract_x
_atom_site_fract_y
_atom_site_fract_z
_atom_site_U_iso_or_equiv
_atom_site_adp_type
_atom_site_occupancy
C1     C     0.65449   0.99860   0.26696   0.00000  Uiso   1.00
C2     C     0.69023   0.97856   0.34875   0.00000  Uiso   1.00
C3     C     0.72020   0.90837   0.33684   0.00000  Uiso   1.00
C4     C     0.75030   0.90148   0.42082   0.00000  Uiso   1.00
C5     C     0.80577   0.86101   0.53377   0.00000  Uiso   1.00
C6     C     0.62408   0.95017   0.31339   0.00000  Uiso   1.00
C7     C     0.59844   0.85613   0.27174   0.00000  Uiso   1.00
C8     C     0.57286   0.82536   0.32597   0.00000  Uiso   1.00
C9     C     0.52562   0.74088   0.38398   0.00000  Uiso   1.00
C10    C     0.64926   0.14420   0.25547   0.00000  Uiso   1.00
C11    C     0.64477   0.21329   0.16511   0.00000  Uiso   1.00
C12    C     0.64037   0.34588   0.17056   0.00000  Uiso   1.00
C13    C     0.63223   0.56266   0.13864   0.00000  Uiso   1.00
C14    C     0.65464   0.11118   0.43730   0.00000  Uiso   1.00
C15    C     0.69030   0.03971   0.44127   0.00000  Uiso   1.00
C16    C     0.72037   0.03293   0.52530   0.00000  Uiso   1.00
C17    C     0.75038   0.96274   0.51352   0.00000  Uiso   1.00
C18    C     0.62416   0.01132   0.40592   0.00000  Uiso   1.00
C19    C     0.59861   0.98069   0.46021   0.00000  Uiso   1.00
C20    C     0.57294   0.88661   0.41866   0.00000  Uiso   1.00
C21    C     0.64934   0.20535   0.34799   0.00000  Uiso   1.00
C22    C     0.64494   0.33785   0.35358   0.00000  Uiso   1.00
C23    C     0.64045   0.40714   0.26325   0.00000  Uiso   1.00
H24    H     0.65442   0.95098   0.19492   0.00000  Uiso   1.00
H25    H     0.72013   0.86105   0.26522   0.00000  Uiso   1.00
H26    H     0.59838   0.80883   0.20014   0.00000  Uiso   1.00
H27    H     0.64471   0.16594   0.09352   0.00000  Uiso   1.00
H28    H     0.79300   0.78827   0.38398   0.00000  Uiso   1.00
H29    H     0.53629   0.67819   0.24672   0.00000  Uiso   1.00
H30    H     0.63398   0.43123   0.02190   0.00000  Uiso   1.00
H31    H     0.65470   0.15879   0.50934   0.00000  Uiso   1.00
H32    H     0.72042   0.08026   0.59689   0.00000  Uiso   1.00
H33    H     0.59868   0.02803   0.53181   0.00000  Uiso   1.00
H34    H     0.64500   0.38514   0.42519   0.00000  Uiso   1.00
H35    H     0.79324   0.96618   0.65318   0.00000  Uiso   1.00
H36    H     0.53653   0.85610   0.51592   0.00000  Uiso   1.00
H37    H     0.63422   0.60914   0.29110   0.00000  Uiso   1.00
O38    O     0.83634   0.82178   0.57051   0.00000  Uiso   1.00
O39    O     0.49955   0.67738   0.39042   0.00000  Uiso   1.00
O40    O     0.62772   0.66534   0.09547   0.00000  Uiso   1.00
N41    N     0.78404   0.84094   0.43531   0.00000  Uiso   1.00
N42    N     0.54404   0.73801   0.30699   0.00000  Uiso   1.00
N43    N     0.63536   0.44203   0.09680   0.00000  Uiso   1.00
N44    N     0.78417   0.93667   0.58016   0.00000  Uiso   1.00
N45    N     0.54417   0.83374   0.45185   0.00000  Uiso   1.00
N46    N     0.63549   0.53776   0.24166   0.00000  Uiso   1.00
C47    C     0.15449   0.49860   0.26696   0.00000  Uiso   1.00
C48    C     0.19023   0.47856   0.34875   0.00000  Uiso   1.00
C49    C     0.22020   0.40837   0.33684   0.00000  Uiso   1.00
C50    C     0.25030   0.40148   0.42082   0.00000  Uiso   1.00
C51    C     0.30577   0.36101   0.53377   0.00000  Uiso   1.00
C52    C     0.12408   0.45017   0.31339   0.00000  Uiso   1.00
C53    C     0.09844   0.35613   0.27174   0.00000  Uiso   1.00
C54    C     0.07286   0.32536   0.32597   0.00000  Uiso   1.00
C55    C     0.02562   0.24088   0.38398   0.00000  Uiso   1.00
C56    C     0.14926   0.64420   0.25547   0.00000  Uiso   1.00
C57    C     0.14477   0.71329   0.16511   0.00000  Uiso   1.00
C58    C     0.14037   0.84588   0.17056   0.00000  Uiso   1.00
C59    C     0.13223   0.06266   0.13864   0.00000  Uiso   1.00
C60    C     0.15464   0.61118   0.43730   0.00000  Uiso   1.00
C61    C     0.19030   0.53971   0.44127   0.00000  Uiso   1.00
C62    C     0.22037   0.53293   0.52530   0.00000  Uiso   1.00
C63    C     0.25038   0.46274   0.51352   0.00000  Uiso   1.00
C64    C     0.12416   0.51132   0.40592   0.00000  Uiso   1.00
C65    C     0.09861   0.48069   0.46021   0.00000  Uiso   1.00
C66    C     0.07294   0.38661   0.41866   0.00000  Uiso   1.00
C67    C     0.14934   0.70535   0.34799   0.00000  Uiso   1.00
C68    C     0.14494   0.83785   0.35358   0.00000  Uiso   1.00
C69    C     0.14045   0.90714   0.26325   0.00000  Uiso   1.00
H70    H     0.15442   0.45098   0.19492   0.00000  Uiso   1.00
H71    H     0.22013   0.36105   0.26522   0.00000  Uiso   1.00
H72    H     0.09838   0.30883   0.20014   0.00000  Uiso   1.00
H73    H     0.14471   0.66594   0.09352   0.00000  Uiso   1.00
H74    H     0.29300   0.28827   0.38398   0.00000  Uiso   1.00
H75    H     0.03629   0.17819   0.24672   0.00000  Uiso   1.00
H76    H     0.13398   0.93123   0.02190   0.00000  Uiso   1.00
H77    H     0.15470   0.65879   0.50934   0.00000  Uiso   1.00
H78    H     0.22042   0.58026   0.59689   0.00000  Uiso   1.00
H79    H     0.09868   0.52803   0.53181   0.00000  Uiso   1.00
H80    H     0.14500   0.88514   0.42519   0.00000  Uiso   1.00
H81    H     0.29324   0.46618   0.65318   0.00000  Uiso   1.00
H82    H     0.03653   0.35610   0.51592   0.00000  Uiso   1.00
H83    H     0.13422   0.10914   0.29110   0.00000  Uiso   1.00
O84    O     0.33634   0.32178   0.57051   0.00000  Uiso   1.00
O85    O     0.99955   0.17738   0.39042   0.00000  Uiso   1.00
O86    O     0.12772   0.16534   0.09547   0.00000  Uiso   1.00
N87    N     0.28404   0.34094   0.43531   0.00000  Uiso   1.00
N88    N     0.04404   0.23801   0.30699   0.00000  Uiso   1.00
N89    N     0.13536   0.94203   0.09680   0.00000  Uiso   1.00
N90    N     0.28417   0.43667   0.58016   0.00000  Uiso   1.00
N91    N     0.04417   0.33374   0.45185   0.00000  Uiso   1.00
N92    N     0.13549   0.03776   0.24166   0.00000  Uiso   1.00
C93    C     0.34551   0.99860   0.23304   0.00000  Uiso   1.00
C94    C     0.30977   0.97856   0.15125   0.00000  Uiso   1.00
C95    C     0.27980   0.90837   0.16316   0.00000  Uiso   1.00
C96    C     0.24970   0.90148   0.07918   0.00000  Uiso   1.00
C97    C     0.19423   0.86101   0.96623   0.00000  Uiso   1.00
C98    C     0.37592   0.95017   0.18661   0.00000  Uiso   1.00
C99    C     0.40156   0.85613   0.22826   0.00000  Uiso   1.00
C100   C     0.42714   0.82536   0.17403   0.00000  Uiso   1.00
C101   C     0.47438   0.74088   0.11602   0.00000  Uiso   1.00
C102   C     0.35074   0.14420   0.24453   0.00000  Uiso   1.00
C103   C     0.35523   0.21329   0.33489   0.00000  Uiso   1.00
C104   C     0.35963   0.34588   0.32944   0.00000  Uiso   1.00
C105   C     0.36777   0.56266   0.36136   0.00000  Uiso   1.00
C106   C     0.34536   0.11118   0.06270   0.00000  Uiso   1.00
C107   C     0.30970   0.03971   0.05873   0.00000  Uiso   1.00
C108   C     0.27963   0.03293   0.97470   0.00000  Uiso   1.00
C109   C     0.24962   0.96274   0.98648   0.00000  Uiso   1.00
C110   C     0.37584   0.01132   0.09408   0.00000  Uiso   1.00
C111   C     0.40139   0.98069   0.03979   0.00000  Uiso   1.00
C112   C     0.42706   0.88661   0.08134   0.00000  Uiso   1.00
C113   C     0.35066   0.20535   0.15201   0.00000  Uiso   1.00
C114   C     0.35506   0.33785   0.14642   0.00000  Uiso   1.00
C115   C     0.35955   0.40714   0.23675   0.00000  Uiso   1.00
H116   H     0.34558   0.95098   0.30508   0.00000  Uiso   1.00
H117   H     0.27987   0.86105   0.23478   0.00000  Uiso   1.00
H118   H     0.40162   0.80883   0.29986   0.00000  Uiso   1.00
H119   H     0.35529   0.16594   0.40648   0.00000  Uiso   1.00
H120   H     0.20700   0.78827   0.11602   0.00000  Uiso   1.00
H121   H     0.46371   0.67819   0.25328   0.00000  Uiso   1.00
H122   H     0.36602   0.43123   0.47810   0.00000  Uiso   1.00
H123   H     0.34530   0.15879   0.99066   0.00000  Uiso   1.00
H124   H     0.27958   0.08026   0.90311   0.00000  Uiso   1.00
H125   H     0.40132   0.02803   0.96819   0.00000  Uiso   1.00
H126   H     0.35500   0.38514   0.07481   0.00000  Uiso   1.00
H127   H     0.20676   0.96618   0.84682   0.00000  Uiso   1.00
H128   H     0.46347   0.85610   0.98408   0.00000  Uiso   1.00
H129   H     0.36578   0.60914   0.20890   0.00000  Uiso   1.00
O130   O     0.16366   0.82178   0.92949   0.00000  Uiso   1.00
O131   O     0.50045   0.67738   0.10958   0.00000  Uiso   1.00
O132   O     0.37228   0.66534   0.40453   0.00000  Uiso   1.00
N133   N     0.21596   0.84094   0.06469   0.00000  Uiso   1.00
N134   N     0.45596   0.73801   0.19301   0.00000  Uiso   1.00
N135   N     0.36464   0.44203   0.40320   0.00000  Uiso   1.00
N136   N     0.21583   0.93667   0.91984   0.00000  Uiso   1.00
N137   N     0.45583   0.83374   0.04815   0.00000  Uiso   1.00
N138   N     0.36451   0.53776   0.25834   0.00000  Uiso   1.00
C139   C     0.84551   0.49860   0.23304   0.00000  Uiso   1.00
C140   C     0.80977   0.47856   0.15125   0.00000  Uiso   1.00
C141   C     0.77980   0.40837   0.16316   0.00000  Uiso   1.00
C142   C     0.74970   0.40148   0.07918   0.00000  Uiso   1.00
C143   C     0.69423   0.36101   0.96623   0.00000  Uiso   1.00
C144   C     0.87592   0.45017   0.18661   0.00000  Uiso   1.00
C145   C     0.90156   0.35613   0.22826   0.00000  Uiso   1.00
C146   C     0.92714   0.32536   0.17403   0.00000  Uiso   1.00
C147   C     0.97438   0.24088   0.11602   0.00000  Uiso   1.00
C148   C     0.85074   0.64420   0.24453   0.00000  Uiso   1.00
C149   C     0.85523   0.71329   0.33489   0.00000  Uiso   1.00
C150   C     0.85963   0.84588   0.32944   0.00000  Uiso   1.00
C151   C     0.86777   0.06266   0.36136   0.00000  Uiso   1.00
C152   C     0.84536   0.61118   0.06270   0.00000  Uiso   1.00
C153   C     0.80970   0.53971   0.05873   0.00000  Uiso   1.00
C154   C     0.77963   0.53293   0.97470   0.00000  Uiso   1.00
C155   C     0.74962   0.46274   0.98648   0.00000  Uiso   1.00
C156   C     0.87584   0.51132   0.09408   0.00000  Uiso   1.00
C157   C     0.90139   0.48069   0.03979   0.00000  Uiso   1.00
C158   C     0.92706   0.38661   0.08134   0.00000  Uiso   1.00
C159   C     0.85066   0.70535   0.15201   0.00000  Uiso   1.00
C160   C     0.85506   0.83785   0.14642   0.00000  Uiso   1.00
C161   C     0.85955   0.90714   0.23675   0.00000  Uiso   1.00
H162   H     0.84558   0.45098   0.30508   0.00000  Uiso   1.00
H163   H     0.77987   0.36105   0.23478   0.00000  Uiso   1.00
H164   H     0.90162   0.30883   0.29986   0.00000  Uiso   1.00
H165   H     0.85529   0.66594   0.40648   0.00000  Uiso   1.00
H166   H     0.70700   0.28827   0.11602   0.00000  Uiso   1.00
H167   H     0.96371   0.17819   0.25328   0.00000  Uiso   1.00
H168   H     0.86602   0.93123   0.47810   0.00000  Uiso   1.00
H169   H     0.84530   0.65879   0.99066   0.00000  Uiso   1.00
H170   H     0.77958   0.58026   0.90311   0.00000  Uiso   1.00
H171   H     0.90132   0.52803   0.96819   0.00000  Uiso   1.00
H172   H     0.85500   0.88514   0.07481   0.00000  Uiso   1.00
H173   H     0.70676   0.46618   0.84682   0.00000  Uiso   1.00
H174   H     0.96347   0.35610   0.98408   0.00000  Uiso   1.00
H175   H     0.86578   0.10914   0.20890   0.00000  Uiso   1.00
O176   O     0.66366   0.32178   0.92949   0.00000  Uiso   1.00
O177   O     0.00045   0.17738   0.10958   0.00000  Uiso   1.00
O178   O     0.87228   0.16534   0.40453   0.00000  Uiso   1.00
N179   N     0.71596   0.34094   0.06469   0.00000  Uiso   1.00
N180   N     0.95596   0.23801   0.19301   0.00000  Uiso   1.00
N181   N     0.86464   0.94203   0.40320   0.00000  Uiso   1.00
N182   N     0.71583   0.43667   0.91984   0.00000  Uiso   1.00
N183   N     0.95583   0.33374   0.04815   0.00000  Uiso   1.00
N184   N     0.86451   0.03776   0.25834   0.00000  Uiso   1.00
C185   C     0.34551   0.00140   0.73304   0.00000  Uiso   1.00
C186   C     0.30977   0.02144   0.65125   0.00000  Uiso   1.00
C187   C     0.27980   0.09163   0.66316   0.00000  Uiso   1.00
C188   C     0.24970   0.09852   0.57918   0.00000  Uiso   1.00
C189   C     0.19423   0.13899   0.46623   0.00000  Uiso   1.00
C190   C     0.37592   0.04983   0.68661   0.00000  Uiso   1.00
C191   C     0.40156   0.14387   0.72826   0.00000  Uiso   1.00
C192   C     0.42714   0.17464   0.67403   0.00000  Uiso   1.00
C193   C     0.47438   0.25912   0.61602   0.00000  Uiso   1.00
C194   C     0.35074   0.85580   0.74453   0.00000  Uiso   1.00
C195   C     0.35523   0.78671   0.83489   0.00000  Uiso   1.00
C196   C     0.35963   0.65412   0.82944   0.00000  Uiso   1.00
C197   C     0.36777   0.43734   0.86136   0.00000  Uiso   1.00
C198   C     0.34536   0.88882   0.56270   0.00000  Uiso   1.00
C199   C     0.30970   0.96029   0.55873   0.00000  Uiso   1.00
C200   C     0.27963   0.96707   0.47470   0.00000  Uiso   1.00
C201   C     0.24962   0.03726   0.48648   0.00000  Uiso   1.00
C202   C     0.37584   0.98868   0.59408   0.00000  Uiso   1.00
C203   C     0.40139   0.01931   0.53979   0.00000  Uiso   1.00
C204   C     0.42706   0.11339   0.58134   0.00000  Uiso   1.00
C205   C     0.35066   0.79465   0.65201   0.00000  Uiso   1.00
C206   C     0.35506   0.66215   0.64642   0.00000  Uiso   1.00
C207   C     0.35955   0.59286   0.73675   0.00000  Uiso   1.00
H208   H     0.34558   0.04902   0.80508   0.00000  Uiso   1.00
H209   H     0.27987   0.13895   0.73478   0.00000  Uiso   1.00
H210   H     0.40162   0.19117   0.79986   0.00000  Uiso   1.00
H211   H     0.35529   0.83406   0.90648   0.00000  Uiso   1.00
H212   H     0.20700   0.21173   0.61602   0.00000  Uiso   1.00
H213   H     0.46371   0.32181   0.75328   0.00000  Uiso   1.00
H214   H     0.36602   0.56877   0.97810   0.00000  Uiso   1.00
H215   H     0.34530   0.84121   0.49066   0.00000  Uiso   1.00
H216   H     0.27958   0.91974   0.40311   0.00000  Uiso   1.00
H217   H     0.40132   0.97197   0.46819   0.00000  Uiso   1.00
H218   H     0.35500   0.61486   0.57481   0.00000  Uiso   1.00
H219   H     0.20676   0.03382   0.34682   0.00000  Uiso   1.00
H220   H     0.46347   0.14390   0.48408   0.00000  Uiso   1.00
H221   H     0.36578   0.39086   0.70890   0.00000  Uiso   1.00
O222   O     0.16366   0.17822   0.42949   0.00000  Uiso   1.00
O223   O     0.50045   0.32262   0.60958   0.00000  Uiso   1.00
O224   O     0.37228   0.33466   0.90453   0.00000  Uiso   1.00
N225   N     0.21596   0.15906   0.56469   0.00000  Uiso   1.00
N226   N     0.45596   0.26199   0.69301   0.00000  Uiso   1.00
N227   N     0.36464   0.55797   0.90320   0.00000  Uiso   1.00
N228   N     0.21583   0.06333   0.41984   0.00000  Uiso   1.00
N229   N     0.45583   0.16626   0.54815   0.00000  Uiso   1.00
N230   N     0.36451   0.46224   0.75834   0.00000  Uiso   1.00
C231   C     0.84551   0.50140   0.73304   0.00000  Uiso   1.00
C232   C     0.80977   0.52144   0.65125   0.00000  Uiso   1.00
C233   C     0.77980   0.59163   0.66316   0.00000  Uiso   1.00
C234   C     0.74970   0.59852   0.57918   0.00000  Uiso   1.00
C235   C     0.69423   0.63899   0.46623   0.00000  Uiso   1.00
C236   C     0.87592   0.54983   0.68661   0.00000  Uiso   1.00
C237   C     0.90156   0.64387   0.72826   0.00000  Uiso   1.00
C238   C     0.92714   0.67464   0.67403   0.00000  Uiso   1.00
C239   C     0.97438   0.75912   0.61602   0.00000  Uiso   1.00
C240   C     0.85074   0.35580   0.74453   0.00000  Uiso   1.00
C241   C     0.85523   0.28671   0.83489   0.00000  Uiso   1.00
C242   C     0.85963   0.15412   0.82944   0.00000  Uiso   1.00
C243   C     0.86777   0.93734   0.86136   0.00000  Uiso   1.00
C244   C     0.84536   0.38882   0.56270   0.00000  Uiso   1.00
C245   C     0.80970   0.46029   0.55873   0.00000  Uiso   1.00
C246   C     0.77963   0.46707   0.47470   0.00000  Uiso   1.00
C247   C     0.74962   0.53726   0.48648   0.00000  Uiso   1.00
C248   C     0.87584   0.48868   0.59408   0.00000  Uiso   1.00
C249   C     0.90139   0.51931   0.53979   0.00000  Uiso   1.00
C250   C     0.92706   0.61339   0.58134   0.00000  Uiso   1.00
C251   C     0.85066   0.29465   0.65201   0.00000  Uiso   1.00
C252   C     0.85506   0.16215   0.64642   0.00000  Uiso   1.00
C253   C     0.85955   0.09286   0.73675   0.00000  Uiso   1.00
H254   H     0.84558   0.54902   0.80508   0.00000  Uiso   1.00
H255   H     0.77987   0.63895   0.73478   0.00000  Uiso   1.00
H256   H     0.90162   0.69117   0.79986   0.00000  Uiso   1.00
H257   H     0.85529   0.33406   0.90648   0.00000  Uiso   1.00
H258   H     0.70700   0.71173   0.61602   0.00000  Uiso   1.00
H259   H     0.96371   0.82181   0.75328   0.00000  Uiso   1.00
H260   H     0.86602   0.06877   0.97810   0.00000  Uiso   1.00
H261   H     0.84530   0.34121   0.49066   0.00000  Uiso   1.00
H262   H     0.77958   0.41974   0.40311   0.00000  Uiso   1.00
H263   H     0.90132   0.47197   0.46819   0.00000  Uiso   1.00
H264   H     0.85500   0.11486   0.57481   0.00000  Uiso   1.00
H265   H     0.70676   0.53382   0.34682   0.00000  Uiso   1.00
H266   H     0.96347   0.64390   0.48408   0.00000  Uiso   1.00
H267   H     0.86578   0.89086   0.70890   0.00000  Uiso   1.00
O268   O     0.66366   0.67822   0.42949   0.00000  Uiso   1.00
O269   O     0.00045   0.82262   0.60958   0.00000  Uiso   1.00
O270   O     0.87228   0.83466   0.90453   0.00000  Uiso   1.00
N271   N     0.71596   0.65906   0.56469   0.00000  Uiso   1.00
N272   N     0.95596   0.76199   0.69301   0.00000  Uiso   1.00
N273   N     0.86464   0.05797   0.90320   0.00000  Uiso   1.00
N274   N     0.71583   0.56333   0.41984   0.00000  Uiso   1.00
N275   N     0.95583   0.66626   0.54815   0.00000  Uiso   1.00
N276   N     0.86451   0.96224   0.75834   0.00000  Uiso   1.00
C277   C     0.65449   0.00140   0.76696   0.00000  Uiso   1.00
C278   C     0.69023   0.02144   0.84875   0.00000  Uiso   1.00
C279   C     0.72020   0.09163   0.83684   0.00000  Uiso   1.00
C280   C     0.75030   0.09852   0.92082   0.00000  Uiso   1.00
C281   C     0.80577   0.13899   0.03377   0.00000  Uiso   1.00
C282   C     0.62408   0.04983   0.81339   0.00000  Uiso   1.00
C283   C     0.59844   0.14387   0.77174   0.00000  Uiso   1.00
C284   C     0.57286   0.17464   0.82597   0.00000  Uiso   1.00
C285   C     0.52562   0.25912   0.88398   0.00000  Uiso   1.00
C286   C     0.64926   0.85580   0.75547   0.00000  Uiso   1.00
C287   C     0.64477   0.78671   0.66511   0.00000  Uiso   1.00
C288   C     0.64037   0.65412   0.67056   0.00000  Uiso   1.00
C289   C     0.63223   0.43734   0.63864   0.00000  Uiso   1.00
C290   C     0.65464   0.88882   0.93730   0.00000  Uiso   1.00
C291   C     0.69030   0.96029   0.94127   0.00000  Uiso   1.00
C292   C     0.72037   0.96707   0.02530   0.00000  Uiso   1.00
C293   C     0.75038   0.03726   0.01352   0.00000  Uiso   1.00
C294   C     0.62416   0.98868   0.90592   0.00000  Uiso   1.00
C295   C     0.59861   0.01931   0.96021   0.00000  Uiso   1.00
C296   C     0.57294   0.11339   0.91866   0.00000  Uiso   1.00
C297   C     0.64934   0.79465   0.84799   0.00000  Uiso   1.00
C298   C     0.64494   0.66215   0.85358   0.00000  Uiso   1.00
C299   C     0.64045   0.59286   0.76325   0.00000  Uiso   1.00
H300   H     0.65442   0.04902   0.69492   0.00000  Uiso   1.00
H301   H     0.72013   0.13895   0.76522   0.00000  Uiso   1.00
H302   H     0.59838   0.19117   0.70014   0.00000  Uiso   1.00
H303   H     0.64471   0.83406   0.59352   0.00000  Uiso   1.00
H304   H     0.79300   0.21173   0.88398   0.00000  Uiso   1.00
H305   H     0.53629   0.32181   0.74672   0.00000  Uiso   1.00
H306   H     0.63398   0.56877   0.52190   0.00000  Uiso   1.00
H307   H     0.65470   0.84121   0.00934   0.00000  Uiso   1.00
H308   H     0.72042   0.91974   0.09689   0.00000  Uiso   1.00
H309   H     0.59868   0.97197   0.03181   0.00000  Uiso   1.00
H310   H     0.64500   0.61486   0.92519   0.00000  Uiso   1.00
H311   H     0.79324   0.03382   0.15318   0.00000  Uiso   1.00
H312   H     0.53653   0.14390   0.01592   0.00000  Uiso   1.00
H313   H     0.63422   0.39086   0.79110   0.00000  Uiso   1.00
O314   O     0.83634   0.17822   0.07051   0.00000  Uiso   1.00
O315   O     0.49955   0.32262   0.89042   0.00000  Uiso   1.00
O316   O     0.62772   0.33466   0.59547   0.00000  Uiso   1.00
N317   N     0.78404   0.15906   0.93531   0.00000  Uiso   1.00
N318   N     0.54404   0.26199   0.80699   0.00000  Uiso   1.00
N319   N     0.63536   0.55797   0.59680   0.00000  Uiso   1.00
N320   N     0.78417   0.06333   0.08016   0.00000  Uiso   1.00
N321   N     0.54417   0.16626   0.95185   0.00000  Uiso   1.00
N322   N     0.63549   0.46224   0.74166   0.00000  Uiso   1.00
C323   C     0.15449   0.50140   0.76696   0.00000  Uiso   1.00
C324   C     0.19023   0.52144   0.84875   0.00000  Uiso   1.00
C325   C     0.22020   0.59163   0.83684   0.00000  Uiso   1.00
C326   C     0.25030   0.59852   0.92082   0.00000  Uiso   1.00
C327   C     0.30577   0.63899   0.03377   0.00000  Uiso   1.00
C328   C     0.12408   0.54983   0.81339   0.00000  Uiso   1.00
C329   C     0.09844   0.64387   0.77174   0.00000  Uiso   1.00
C330   C     0.07286   0.67464   0.82597   0.00000  Uiso   1.00
C331   C     0.02562   0.75912   0.88398   0.00000  Uiso   1.00
C332   C     0.14926   0.35580   0.75547   0.00000  Uiso   1.00
C333   C     0.14477   0.28671   0.66511   0.00000  Uiso   1.00
C334   C     0.14037   0.15412   0.67056   0.00000  Uiso   1.00
C335   C     0.13223   0.93734   0.63864   0.00000  Uiso   1.00
C336   C     0.15464   0.38882   0.93730   0.00000  Uiso   1.00
C337   C     0.19030   0.46029   0.94127   0.00000  Uiso   1.00
C338   C     0.22037   0.46707   0.02530   0.00000  Uiso   1.00
C339   C     0.25038   0.53726   0.01352   0.00000  Uiso   1.00
C340   C     0.12416   0.48868   0.90592   0.00000  Uiso   1.00
C341   C     0.09861   0.51931   0.96021   0.00000  Uiso   1.00
C342   C     0.07294   0.61339   0.91866   0.00000  Uiso   1.00
C343   C     0.14934   0.29465   0.84799   0.00000  Uiso   1.00
C344   C     0.14494   0.16215   0.85358   0.00000  Uiso   1.00
C345   C     0.14045   0.09286   0.76325   0.00000  Uiso   1.00
H346   H     0.15442   0.54902   0.69492   0.00000  Uiso   1.00
H347   H     0.22013   0.63895   0.76522   0.00000  Uiso   1.00
H348   H     0.09838   0.69117   0.70014   0.00000  Uiso   1.00
H349   H     0.14471   0.33406   0.59352   0.00000  Uiso   1.00
H350   H     0.29300   0.71173   0.88398   0.00000  Uiso   1.00
H351   H     0.03629   0.82181   0.74672   0.00000  Uiso   1.00
H352   H     0.13398   0.06877   0.52190   0.00000  Uiso   1.00
H353   H     0.15470   0.34121   0.00934   0.00000  Uiso   1.00
H354   H     0.22042   0.41974   0.09689   0.00000  Uiso   1.00
H355   H     0.09868   0.47197   0.03181   0.00000  Uiso   1.00
H356   H     0.14500   0.11486   0.92519   0.00000  Uiso   1.00
H357   H     0.29324   0.53382   0.15318   0.00000  Uiso   1.00
H358   H     0.03653   0.64390   0.01592   0.00000  Uiso   1.00
H359   H     0.13422   0.89086   0.79110   0.00000  Uiso   1.00
O360   O     0.33634   0.67822   0.07051   0.00000  Uiso   1.00
O361   O     0.99955   0.82262   0.89042   0.00000  Uiso   1.00
O362   O     0.12772   0.83466   0.59547   0.00000  Uiso   1.00
N363   N     0.28404   0.65906   0.93531   0.00000  Uiso   1.00
N364   N     0.04404   0.76199   0.80699   0.00000  Uiso   1.00
N365   N     0.13536   0.05797   0.59680   0.00000  Uiso   1.00
N366   N     0.28417   0.56333   0.08016   0.00000  Uiso   1.00
N367   N     0.04417   0.66626   0.95185   0.00000  Uiso   1.00
N368   N     0.13549   0.96224   0.74166   0.00000  Uiso   1.00
