data_job_02789
_audit_creation_date              2018-12-19
_audit_creation_method            'Materials Studio'
_symmetry_space_group_name_H-M    'P1'
_symmetry_Int_Tables_number       1
_symmetry_cell_setting            triclinic
loop_
_symmetry_equiv_pos_as_xyz
  x,y,z
_cell_length_a                    14.8593
_cell_length_b                    16.0045
_cell_length_c                    21.7631
_cell_angle_alpha                 90.0000
_cell_angle_beta                  134.8913
_cell_angle_gamma                 90.0000
loop_
_atom_site_label
_atom_site_type_symbol
_atom_site_fract_x
_atom_site_fract_y
_atom_site_fract_z
_atom_site_U_iso_or_equiv
_atom_site_adp_type
_atom_site_occupancy
C1     C     0.63524   0.61839   0.93163   0.00000  Uiso   1.00
C2     C     0.68864   0.53822   0.98505   0.00000  Uiso   1.00
C3     C     0.72913   0.52816   0.06479   0.00000  Uiso   1.00
C4     C     0.77493   0.44992   0.10324   0.00000  Uiso   1.00
C5     C     0.85714   0.33545   0.19228   0.00000  Uiso   1.00
C6     C     0.71852   0.63826   0.91632   0.00000  Uiso   1.00
C7     C     0.78411   0.71233   0.93827   0.00000  Uiso   1.00
C8     C     0.85505   0.71830   0.91885   0.00000  Uiso   1.00
C9     C     0.98357   0.75918   0.90113   0.00000  Uiso   1.00
C10    C     0.50498   0.59572   0.84314   0.00000  Uiso   1.00
C11    C     0.39103   0.63403   0.80354   0.00000  Uiso   1.00
C12    C     0.28219   0.60420   0.72250   0.00000  Uiso   1.00
C13    C     0.07915   0.57902   0.59116   0.00000  Uiso   1.00
C14    C     0.64459   0.49731   0.85811   0.00000  Uiso   1.00
C15    C     0.69372   0.47246   0.94511   0.00000  Uiso   1.00
C16    C     0.73947   0.39421   0.98345   0.00000  Uiso   1.00
C17    C     0.78001   0.38404   0.06324   0.00000  Uiso   1.00
C18    C     0.72360   0.57250   0.87639   0.00000  Uiso   1.00
C19    C     0.79445   0.57837   0.85693   0.00000  Uiso   1.00
C20    C     0.86014   0.65243   0.87885   0.00000  Uiso   1.00
C21    C     0.51005   0.52995   0.80321   0.00000  Uiso   1.00
C22    C     0.40137   0.50007   0.72221   0.00000  Uiso   1.00
C23    C     0.28727   0.53832   0.68250   0.00000  Uiso   1.00
H24    H     0.63129   0.66959   0.96271   0.00000  Uiso   1.00
H25    H     0.72519   0.57907   0.09568   0.00000  Uiso   1.00
H26    H     0.78015   0.76321   0.96916   0.00000  Uiso   1.00
H27    H     0.38713   0.68491   0.83446   0.00000  Uiso   1.00
H28    H     0.83158   0.44972   0.22549   0.00000  Uiso   1.00
H29    H     0.94744   0.83800   0.95870   0.00000  Uiso   1.00
H30    H     0.11868   0.67291   0.67466   0.00000  Uiso   1.00
H31    H     0.64854   0.44611   0.82702   0.00000  Uiso   1.00
H32    H     0.74339   0.34333   0.95253   0.00000  Uiso   1.00
H33    H     0.79836   0.52747   0.82602   0.00000  Uiso   1.00
H34    H     0.40534   0.44918   0.69132   0.00000  Uiso   1.00
H35    H     0.84636   0.25839   0.10932   0.00000  Uiso   1.00
H36    H     0.96221   0.64667   0.84252   0.00000  Uiso   1.00
H37    H     0.13345   0.48157   0.55849   0.00000  Uiso   1.00
O38    O     0.90109   0.29048   0.25243   0.00000  Uiso   1.00
O39    O     0.05307   0.79989   0.90240   0.00000  Uiso   1.00
O40    O     0.96576   0.58329   0.52975   0.00000  Uiso   1.00
N41    N     0.82202   0.41879   0.18092   0.00000  Uiso   1.00
N42    N     0.93035   0.78180   0.93150   0.00000  Uiso   1.00
N43    N     0.15554   0.62747   0.66593   0.00000  Uiso   1.00
N44    N     0.82997   0.31584   0.11840   0.00000  Uiso   1.00
N45    N     0.93830   0.67885   0.86898   0.00000  Uiso   1.00
N46    N     0.16349   0.52451   0.60342   0.00000  Uiso   1.00
C47    C     0.36476   0.11839   0.56837   0.00000  Uiso   1.00
C48    C     0.31136   0.03822   0.51495   0.00000  Uiso   1.00
C49    C     0.27087   0.02816   0.43521   0.00000  Uiso   1.00
C50    C     0.22507   0.94992   0.39676   0.00000  Uiso   1.00
C51    C     0.14286   0.83545   0.30772   0.00000  Uiso   1.00
C52    C     0.28148   0.13826   0.58368   0.00000  Uiso   1.00
C53    C     0.21589   0.21233   0.56173   0.00000  Uiso   1.00
C54    C     0.14495   0.21830   0.58115   0.00000  Uiso   1.00
C55    C     0.01643   0.25918   0.59887   0.00000  Uiso   1.00
C56    C     0.49502   0.09572   0.65686   0.00000  Uiso   1.00
C57    C     0.60897   0.13403   0.69646   0.00000  Uiso   1.00
C58    C     0.71781   0.10420   0.77750   0.00000  Uiso   1.00
C59    C     0.92085   0.07902   0.90884   0.00000  Uiso   1.00
C60    C     0.35541   0.99731   0.64189   0.00000  Uiso   1.00
C61    C     0.30628   0.97246   0.55489   0.00000  Uiso   1.00
C62    C     0.26053   0.89421   0.51655   0.00000  Uiso   1.00
C63    C     0.21999   0.88404   0.43676   0.00000  Uiso   1.00
C64    C     0.27640   0.07250   0.62361   0.00000  Uiso   1.00
C65    C     0.20555   0.07837   0.64307   0.00000  Uiso   1.00
C66    C     0.13986   0.15243   0.62115   0.00000  Uiso   1.00
C67    C     0.48995   0.02995   0.69679   0.00000  Uiso   1.00
C68    C     0.59863   0.00007   0.77779   0.00000  Uiso   1.00
C69    C     0.71273   0.03832   0.81750   0.00000  Uiso   1.00
H70    H     0.36871   0.16959   0.53729   0.00000  Uiso   1.00
H71    H     0.27481   0.07907   0.40432   0.00000  Uiso   1.00
H72    H     0.21985   0.26321   0.53084   0.00000  Uiso   1.00
H73    H     0.61287   0.18491   0.66554   0.00000  Uiso   1.00
H74    H     0.16842   0.94972   0.27451   0.00000  Uiso   1.00
H75    H     0.05256   0.33800   0.54130   0.00000  Uiso   1.00
H76    H     0.88132   0.17291   0.82534   0.00000  Uiso   1.00
H77    H     0.35146   0.94611   0.67298   0.00000  Uiso   1.00
H78    H     0.25661   0.84333   0.54747   0.00000  Uiso   1.00
H79    H     0.20164   0.02747   0.67398   0.00000  Uiso   1.00
H80    H     0.59466   0.94918   0.80868   0.00000  Uiso   1.00
H81    H     0.15364   0.75839   0.39068   0.00000  Uiso   1.00
H82    H     0.03779   0.14667   0.65748   0.00000  Uiso   1.00
H83    H     0.86655   0.98157   0.94151   0.00000  Uiso   1.00
O84    O     0.09891   0.79048   0.24757   0.00000  Uiso   1.00
O85    O     0.94693   0.29989   0.59760   0.00000  Uiso   1.00
O86    O     0.03424   0.08329   0.97025   0.00000  Uiso   1.00
N87    N     0.17798   0.91879   0.31908   0.00000  Uiso   1.00
N88    N     0.06965   0.28180   0.56850   0.00000  Uiso   1.00
N89    N     0.84446   0.12747   0.83407   0.00000  Uiso   1.00
N90    N     0.17003   0.81584   0.38160   0.00000  Uiso   1.00
N91    N     0.06170   0.17885   0.63102   0.00000  Uiso   1.00
N92    N     0.83651   0.02451   0.89658   0.00000  Uiso   1.00
C93    C     0.36476   0.38161   0.06837   0.00000  Uiso   1.00
C94    C     0.31136   0.46178   0.01495   0.00000  Uiso   1.00
C95    C     0.27087   0.47184   0.93521   0.00000  Uiso   1.00
C96    C     0.22507   0.55008   0.89676   0.00000  Uiso   1.00
C97    C     0.14286   0.66455   0.80772   0.00000  Uiso   1.00
C98    C     0.28148   0.36174   0.08368   0.00000  Uiso   1.00
C99    C     0.21589   0.28767   0.06173   0.00000  Uiso   1.00
C100   C     0.14495   0.28170   0.08115   0.00000  Uiso   1.00
C101   C     0.01643   0.24082   0.09887   0.00000  Uiso   1.00
C102   C     0.49502   0.40428   0.15686   0.00000  Uiso   1.00
C103   C     0.60897   0.36597   0.19646   0.00000  Uiso   1.00
C104   C     0.71781   0.39580   0.27750   0.00000  Uiso   1.00
C105   C     0.92085   0.42098   0.40884   0.00000  Uiso   1.00
C106   C     0.35541   0.50269   0.14189   0.00000  Uiso   1.00
C107   C     0.30628   0.52754   0.05489   0.00000  Uiso   1.00
C108   C     0.26053   0.60579   0.01655   0.00000  Uiso   1.00
C109   C     0.21999   0.61596   0.93676   0.00000  Uiso   1.00
C110   C     0.27640   0.42750   0.12361   0.00000  Uiso   1.00
C111   C     0.20555   0.42163   0.14307   0.00000  Uiso   1.00
C112   C     0.13986   0.34757   0.12115   0.00000  Uiso   1.00
C113   C     0.48995   0.47005   0.19679   0.00000  Uiso   1.00
C114   C     0.59863   0.49993   0.27779   0.00000  Uiso   1.00
C115   C     0.71273   0.46168   0.31750   0.00000  Uiso   1.00
H116   H     0.36871   0.33041   0.03729   0.00000  Uiso   1.00
H117   H     0.27481   0.42093   0.90432   0.00000  Uiso   1.00
H118   H     0.21985   0.23679   0.03084   0.00000  Uiso   1.00
H119   H     0.61287   0.31509   0.16554   0.00000  Uiso   1.00
H120   H     0.16842   0.55028   0.77451   0.00000  Uiso   1.00
H121   H     0.05256   0.16200   0.04130   0.00000  Uiso   1.00
H122   H     0.88132   0.32709   0.32534   0.00000  Uiso   1.00
H123   H     0.35146   0.55389   0.17298   0.00000  Uiso   1.00
H124   H     0.25661   0.65667   0.04747   0.00000  Uiso   1.00
H125   H     0.20164   0.47253   0.17398   0.00000  Uiso   1.00
H126   H     0.59466   0.55082   0.30868   0.00000  Uiso   1.00
H127   H     0.15364   0.74161   0.89068   0.00000  Uiso   1.00
H128   H     0.03779   0.35333   0.15748   0.00000  Uiso   1.00
H129   H     0.86655   0.51843   0.44151   0.00000  Uiso   1.00
O130   O     0.09891   0.70952   0.74757   0.00000  Uiso   1.00
O131   O     0.94693   0.20011   0.09760   0.00000  Uiso   1.00
O132   O     0.03424   0.41671   0.47025   0.00000  Uiso   1.00
N133   N     0.17798   0.58121   0.81908   0.00000  Uiso   1.00
N134   N     0.06965   0.21820   0.06850   0.00000  Uiso   1.00
N135   N     0.84446   0.37253   0.33407   0.00000  Uiso   1.00
N136   N     0.17003   0.68416   0.88160   0.00000  Uiso   1.00
N137   N     0.06170   0.32115   0.13102   0.00000  Uiso   1.00
N138   N     0.83651   0.47549   0.39658   0.00000  Uiso   1.00
C139   C     0.63524   0.88161   0.43163   0.00000  Uiso   1.00
C140   C     0.68864   0.96178   0.48505   0.00000  Uiso   1.00
C141   C     0.72913   0.97184   0.56479   0.00000  Uiso   1.00
C142   C     0.77493   0.05008   0.60324   0.00000  Uiso   1.00
C143   C     0.85714   0.16455   0.69228   0.00000  Uiso   1.00
C144   C     0.71852   0.86174   0.41632   0.00000  Uiso   1.00
C145   C     0.78411   0.78767   0.43827   0.00000  Uiso   1.00
C146   C     0.85505   0.78170   0.41885   0.00000  Uiso   1.00
C147   C     0.98357   0.74082   0.40113   0.00000  Uiso   1.00
C148   C     0.50498   0.90428   0.34314   0.00000  Uiso   1.00
C149   C     0.39103   0.86597   0.30354   0.00000  Uiso   1.00
C150   C     0.28219   0.89580   0.22250   0.00000  Uiso   1.00
C151   C     0.07915   0.92098   0.09116   0.00000  Uiso   1.00
C152   C     0.64459   0.00269   0.35811   0.00000  Uiso   1.00
C153   C     0.69372   0.02754   0.44511   0.00000  Uiso   1.00
C154   C     0.73947   0.10579   0.48345   0.00000  Uiso   1.00
C155   C     0.78001   0.11596   0.56324   0.00000  Uiso   1.00
C156   C     0.72360   0.92750   0.37639   0.00000  Uiso   1.00
C157   C     0.79445   0.92163   0.35693   0.00000  Uiso   1.00
C158   C     0.86014   0.84757   0.37885   0.00000  Uiso   1.00
C159   C     0.51005   0.97005   0.30321   0.00000  Uiso   1.00
C160   C     0.40137   0.99993   0.22221   0.00000  Uiso   1.00
C161   C     0.28727   0.96168   0.18250   0.00000  Uiso   1.00
H162   H     0.63129   0.83041   0.46271   0.00000  Uiso   1.00
H163   H     0.72519   0.92093   0.59568   0.00000  Uiso   1.00
H164   H     0.78015   0.73679   0.46916   0.00000  Uiso   1.00
H165   H     0.38713   0.81509   0.33446   0.00000  Uiso   1.00
H166   H     0.83158   0.05028   0.72549   0.00000  Uiso   1.00
H167   H     0.94744   0.66200   0.45870   0.00000  Uiso   1.00
H168   H     0.11868   0.82709   0.17466   0.00000  Uiso   1.00
H169   H     0.64854   0.05389   0.32702   0.00000  Uiso   1.00
H170   H     0.74339   0.15667   0.45253   0.00000  Uiso   1.00
H171   H     0.79836   0.97253   0.32602   0.00000  Uiso   1.00
H172   H     0.40534   0.05082   0.19132   0.00000  Uiso   1.00
H173   H     0.84636   0.24161   0.60932   0.00000  Uiso   1.00
H174   H     0.96221   0.85333   0.34252   0.00000  Uiso   1.00
H175   H     0.13345   0.01843   0.05849   0.00000  Uiso   1.00
O176   O     0.90109   0.20952   0.75243   0.00000  Uiso   1.00
O177   O     0.05307   0.70011   0.40240   0.00000  Uiso   1.00
O178   O     0.96576   0.91671   0.02975   0.00000  Uiso   1.00
N179   N     0.82202   0.08121   0.68092   0.00000  Uiso   1.00
N180   N     0.93035   0.71820   0.43150   0.00000  Uiso   1.00
N181   N     0.15554   0.87253   0.16593   0.00000  Uiso   1.00
N182   N     0.82997   0.18416   0.61840   0.00000  Uiso   1.00
N183   N     0.93830   0.82115   0.36898   0.00000  Uiso   1.00
N184   N     0.16349   0.97549   0.10342   0.00000  Uiso   1.00
