data_job_01351
_audit_creation_date              2018-12-19
_audit_creation_method            'Materials Studio'
_symmetry_space_group_name_H-M    'P1'
_symmetry_Int_Tables_number       1
_symmetry_cell_setting            triclinic
loop_
_symmetry_equiv_pos_as_xyz
  x,y,z
_cell_length_a                    14.5146
_cell_length_b                    24.7076
_cell_length_c                    13.5554
_cell_angle_alpha                 90.0000
_cell_angle_beta                  110.1940
_cell_angle_gamma                 90.0000
loop_
_atom_site_label
_atom_site_type_symbol
_atom_site_fract_x
_atom_site_fract_y
_atom_site_fract_z
_atom_site_U_iso_or_equiv
_atom_site_adp_type
_atom_site_occupancy
C1     C     0.79451   0.31701   0.42439   0.00000  Uiso   1.00
C2     C     0.89265   0.30948   0.40833   0.00000  Uiso   1.00
C3     C     0.93551   0.26024   0.40033   0.00000  Uiso   1.00
C4     C     0.02558   0.26195   0.38579   0.00000  Uiso   1.00
C5     C     0.17108   0.24279   0.36185   0.00000  Uiso   1.00
C6     C     0.81595   0.35130   0.52334   0.00000  Uiso   1.00
C7     C     0.79431   0.33721   0.61203   0.00000  Uiso   1.00
C8     C     0.81980   0.37412   0.69430   0.00000  Uiso   1.00
C9     C     0.84615   0.41989   0.84889   0.00000  Uiso   1.00
C10    C     0.73231   0.35234   0.33358   0.00000  Uiso   1.00
C11    C     0.64033   0.33913   0.26273   0.00000  Uiso   1.00
C12    C     0.59539   0.37693   0.18525   0.00000  Uiso   1.00
C13    C     0.49189   0.42431   0.04521   0.00000  Uiso   1.00
C14    C     0.87825   0.40763   0.41279   0.00000  Uiso   1.00
C15    C     0.93814   0.35871   0.40203   0.00000  Uiso   1.00
C16    C     0.02816   0.36050   0.38749   0.00000  Uiso   1.00
C17    C     0.07115   0.31126   0.37947   0.00000  Uiso   1.00
C18    C     0.86144   0.40052   0.51704   0.00000  Uiso   1.00
C19    C     0.88696   0.43747   0.59919   0.00000  Uiso   1.00
C20    C     0.86537   0.42344   0.68799   0.00000  Uiso   1.00
C21    C     0.77780   0.40156   0.32727   0.00000  Uiso   1.00
C22    C     0.73299   0.43939   0.24989   0.00000  Uiso   1.00
C23    C     0.64096   0.42624   0.17894   0.00000  Uiso   1.00
H24    H     0.75910   0.27869   0.42931   0.00000  Uiso   1.00
H25    H     0.90029   0.22215   0.40522   0.00000  Uiso   1.00
H26    H     0.75910   0.29911   0.61688   0.00000  Uiso   1.00
H27    H     0.60516   0.30103   0.26764   0.00000  Uiso   1.00
H28    H     0.07691   0.18118   0.37577   0.00000  Uiso   1.00
H29    H     0.77917   0.34347   0.82206   0.00000  Uiso   1.00
H30    H     0.45454   0.34752   0.08561   0.00000  Uiso   1.00
H31    H     0.91366   0.44595   0.40788   0.00000  Uiso   1.00
H32    H     0.06334   0.39860   0.38262   0.00000  Uiso   1.00
H33    H     0.92216   0.47556   0.59428   0.00000  Uiso   1.00
H34    H     0.76821   0.47748   0.24504   0.00000  Uiso   1.00
H35    H     0.20925   0.32439   0.35743   0.00000  Uiso   1.00
H36    H     0.91151   0.48668   0.80372   0.00000  Uiso   1.00
H37    H     0.58689   0.49073   0.06727   0.00000  Uiso   1.00
O38    O     0.23877   0.21862   0.35040   0.00000  Uiso   1.00
O39    O     0.84813   0.43153   0.93591   0.00000  Uiso   1.00
O40    O     0.42223   0.43684   0.96970   0.00000  Uiso   1.00
N41    N     0.08750   0.22139   0.37490   0.00000  Uiso   1.00
N42    N     0.80915   0.37311   0.79216   0.00000  Uiso   1.00
N43    N     0.50564   0.37690   0.10366   0.00000  Uiso   1.00
N44    N     0.15872   0.29845   0.36503   0.00000  Uiso   1.00
N45    N     0.88037   0.45017   0.78229   0.00000  Uiso   1.00
N46    N     0.57685   0.45396   0.09379   0.00000  Uiso   1.00
C47    C     0.29451   0.81701   0.42439   0.00000  Uiso   1.00
C48    C     0.39265   0.80948   0.40833   0.00000  Uiso   1.00
C49    C     0.43551   0.76024   0.40033   0.00000  Uiso   1.00
C50    C     0.52558   0.76195   0.38579   0.00000  Uiso   1.00
C51    C     0.67108   0.74279   0.36185   0.00000  Uiso   1.00
C52    C     0.31595   0.85130   0.52334   0.00000  Uiso   1.00
C53    C     0.29431   0.83721   0.61203   0.00000  Uiso   1.00
C54    C     0.31980   0.87412   0.69430   0.00000  Uiso   1.00
C55    C     0.34615   0.91989   0.84889   0.00000  Uiso   1.00
C56    C     0.23231   0.85234   0.33358   0.00000  Uiso   1.00
C57    C     0.14033   0.83913   0.26273   0.00000  Uiso   1.00
C58    C     0.09539   0.87693   0.18525   0.00000  Uiso   1.00
C59    C     0.99189   0.92431   0.04521   0.00000  Uiso   1.00
C60    C     0.37825   0.90763   0.41279   0.00000  Uiso   1.00
C61    C     0.43814   0.85871   0.40203   0.00000  Uiso   1.00
C62    C     0.52816   0.86050   0.38749   0.00000  Uiso   1.00
C63    C     0.57115   0.81126   0.37947   0.00000  Uiso   1.00
C64    C     0.36144   0.90052   0.51704   0.00000  Uiso   1.00
C65    C     0.38696   0.93747   0.59919   0.00000  Uiso   1.00
C66    C     0.36537   0.92344   0.68799   0.00000  Uiso   1.00
C67    C     0.27780   0.90156   0.32727   0.00000  Uiso   1.00
C68    C     0.23299   0.93939   0.24989   0.00000  Uiso   1.00
C69    C     0.14096   0.92624   0.17894   0.00000  Uiso   1.00
H70    H     0.25910   0.77869   0.42931   0.00000  Uiso   1.00
H71    H     0.40029   0.72215   0.40522   0.00000  Uiso   1.00
H72    H     0.25910   0.79911   0.61688   0.00000  Uiso   1.00
H73    H     0.10516   0.80103   0.26764   0.00000  Uiso   1.00
H74    H     0.57691   0.68118   0.37577   0.00000  Uiso   1.00
H75    H     0.27917   0.84347   0.82206   0.00000  Uiso   1.00
H76    H     0.95454   0.84752   0.08561   0.00000  Uiso   1.00
H77    H     0.41366   0.94595   0.40788   0.00000  Uiso   1.00
H78    H     0.56334   0.89860   0.38262   0.00000  Uiso   1.00
H79    H     0.42216   0.97556   0.59428   0.00000  Uiso   1.00
H80    H     0.26821   0.97748   0.24504   0.00000  Uiso   1.00
H81    H     0.70925   0.82439   0.35743   0.00000  Uiso   1.00
H82    H     0.41151   0.98668   0.80372   0.00000  Uiso   1.00
H83    H     0.08689   0.99073   0.06727   0.00000  Uiso   1.00
O84    O     0.73877   0.71862   0.35040   0.00000  Uiso   1.00
O85    O     0.34813   0.93153   0.93591   0.00000  Uiso   1.00
O86    O     0.92223   0.93684   0.96970   0.00000  Uiso   1.00
N87    N     0.58750   0.72139   0.37490   0.00000  Uiso   1.00
N88    N     0.30915   0.87311   0.79216   0.00000  Uiso   1.00
N89    N     0.00564   0.87690   0.10366   0.00000  Uiso   1.00
N90    N     0.65872   0.79845   0.36503   0.00000  Uiso   1.00
N91    N     0.38037   0.95017   0.78229   0.00000  Uiso   1.00
N92    N     0.07685   0.95396   0.09379   0.00000  Uiso   1.00
C93    C     0.20549   0.31701   0.07561   0.00000  Uiso   1.00
C94    C     0.10735   0.30948   0.09167   0.00000  Uiso   1.00
C95    C     0.06449   0.26024   0.09967   0.00000  Uiso   1.00
C96    C     0.97442   0.26195   0.11421   0.00000  Uiso   1.00
C97    C     0.82892   0.24279   0.13815   0.00000  Uiso   1.00
C98    C     0.18405   0.35130   0.97666   0.00000  Uiso   1.00
C99    C     0.20569   0.33721   0.88797   0.00000  Uiso   1.00
C100   C     0.18020   0.37412   0.80570   0.00000  Uiso   1.00
C101   C     0.15385   0.41989   0.65111   0.00000  Uiso   1.00
C102   C     0.26769   0.35234   0.16642   0.00000  Uiso   1.00
C103   C     0.35967   0.33913   0.23727   0.00000  Uiso   1.00
C104   C     0.40461   0.37693   0.31475   0.00000  Uiso   1.00
C105   C     0.50811   0.42431   0.45479   0.00000  Uiso   1.00
C106   C     0.12175   0.40763   0.08721   0.00000  Uiso   1.00
C107   C     0.06186   0.35871   0.09797   0.00000  Uiso   1.00
C108   C     0.97184   0.36050   0.11251   0.00000  Uiso   1.00
C109   C     0.92885   0.31126   0.12053   0.00000  Uiso   1.00
C110   C     0.13856   0.40052   0.98296   0.00000  Uiso   1.00
C111   C     0.11304   0.43747   0.90081   0.00000  Uiso   1.00
C112   C     0.13463   0.42344   0.81201   0.00000  Uiso   1.00
C113   C     0.22220   0.40156   0.17273   0.00000  Uiso   1.00
C114   C     0.26701   0.43939   0.25011   0.00000  Uiso   1.00
C115   C     0.35904   0.42624   0.32106   0.00000  Uiso   1.00
H116   H     0.24090   0.27869   0.07069   0.00000  Uiso   1.00
H117   H     0.09971   0.22215   0.09478   0.00000  Uiso   1.00
H118   H     0.24090   0.29911   0.88312   0.00000  Uiso   1.00
H119   H     0.39484   0.30103   0.23236   0.00000  Uiso   1.00
H120   H     0.92309   0.18118   0.12423   0.00000  Uiso   1.00
H121   H     0.22083   0.34347   0.67794   0.00000  Uiso   1.00
H122   H     0.54546   0.34752   0.41439   0.00000  Uiso   1.00
H123   H     0.08634   0.44595   0.09212   0.00000  Uiso   1.00
H124   H     0.93666   0.39860   0.11738   0.00000  Uiso   1.00
H125   H     0.07784   0.47556   0.90572   0.00000  Uiso   1.00
H126   H     0.23179   0.47748   0.25496   0.00000  Uiso   1.00
H127   H     0.79075   0.32439   0.14257   0.00000  Uiso   1.00
H128   H     0.08849   0.48668   0.69628   0.00000  Uiso   1.00
H129   H     0.41311   0.49073   0.43273   0.00000  Uiso   1.00
O130   O     0.76123   0.21862   0.14960   0.00000  Uiso   1.00
O131   O     0.15187   0.43153   0.56409   0.00000  Uiso   1.00
O132   O     0.57777   0.43684   0.53030   0.00000  Uiso   1.00
N133   N     0.91250   0.22139   0.12510   0.00000  Uiso   1.00
N134   N     0.19085   0.37311   0.70784   0.00000  Uiso   1.00
N135   N     0.49436   0.37690   0.39634   0.00000  Uiso   1.00
N136   N     0.84128   0.29845   0.13497   0.00000  Uiso   1.00
N137   N     0.11963   0.45017   0.71771   0.00000  Uiso   1.00
N138   N     0.42315   0.45396   0.40621   0.00000  Uiso   1.00
C139   C     0.70549   0.81701   0.07561   0.00000  Uiso   1.00
C140   C     0.60735   0.80948   0.09167   0.00000  Uiso   1.00
C141   C     0.56449   0.76024   0.09967   0.00000  Uiso   1.00
C142   C     0.47442   0.76195   0.11421   0.00000  Uiso   1.00
C143   C     0.32892   0.74279   0.13815   0.00000  Uiso   1.00
C144   C     0.68405   0.85130   0.97666   0.00000  Uiso   1.00
C145   C     0.70569   0.83721   0.88797   0.00000  Uiso   1.00
C146   C     0.68020   0.87412   0.80570   0.00000  Uiso   1.00
C147   C     0.65385   0.91989   0.65111   0.00000  Uiso   1.00
C148   C     0.76769   0.85234   0.16642   0.00000  Uiso   1.00
C149   C     0.85967   0.83913   0.23727   0.00000  Uiso   1.00
C150   C     0.90461   0.87693   0.31475   0.00000  Uiso   1.00
C151   C     0.00811   0.92431   0.45479   0.00000  Uiso   1.00
C152   C     0.62175   0.90763   0.08721   0.00000  Uiso   1.00
C153   C     0.56186   0.85871   0.09797   0.00000  Uiso   1.00
C154   C     0.47184   0.86050   0.11251   0.00000  Uiso   1.00
C155   C     0.42885   0.81126   0.12053   0.00000  Uiso   1.00
C156   C     0.63856   0.90052   0.98296   0.00000  Uiso   1.00
C157   C     0.61304   0.93747   0.90081   0.00000  Uiso   1.00
C158   C     0.63463   0.92344   0.81201   0.00000  Uiso   1.00
C159   C     0.72220   0.90156   0.17273   0.00000  Uiso   1.00
C160   C     0.76701   0.93939   0.25011   0.00000  Uiso   1.00
C161   C     0.85904   0.92624   0.32106   0.00000  Uiso   1.00
H162   H     0.74090   0.77869   0.07069   0.00000  Uiso   1.00
H163   H     0.59971   0.72215   0.09478   0.00000  Uiso   1.00
H164   H     0.74090   0.79911   0.88312   0.00000  Uiso   1.00
H165   H     0.89484   0.80103   0.23236   0.00000  Uiso   1.00
H166   H     0.42309   0.68118   0.12423   0.00000  Uiso   1.00
H167   H     0.72083   0.84347   0.67794   0.00000  Uiso   1.00
H168   H     0.04546   0.84752   0.41439   0.00000  Uiso   1.00
H169   H     0.58634   0.94595   0.09212   0.00000  Uiso   1.00
H170   H     0.43666   0.89860   0.11738   0.00000  Uiso   1.00
H171   H     0.57784   0.97556   0.90572   0.00000  Uiso   1.00
H172   H     0.73179   0.97748   0.25496   0.00000  Uiso   1.00
H173   H     0.29075   0.82439   0.14257   0.00000  Uiso   1.00
H174   H     0.58849   0.98668   0.69628   0.00000  Uiso   1.00
H175   H     0.91311   0.99073   0.43273   0.00000  Uiso   1.00
O176   O     0.26123   0.71862   0.14960   0.00000  Uiso   1.00
O177   O     0.65187   0.93153   0.56409   0.00000  Uiso   1.00
O178   O     0.07777   0.93684   0.53030   0.00000  Uiso   1.00
N179   N     0.41250   0.72139   0.12510   0.00000  Uiso   1.00
N180   N     0.69085   0.87311   0.70784   0.00000  Uiso   1.00
N181   N     0.99436   0.87690   0.39634   0.00000  Uiso   1.00
N182   N     0.34128   0.79845   0.13497   0.00000  Uiso   1.00
N183   N     0.61963   0.95017   0.71771   0.00000  Uiso   1.00
N184   N     0.92315   0.95396   0.40621   0.00000  Uiso   1.00
C185   C     0.20549   0.68299   0.57561   0.00000  Uiso   1.00
C186   C     0.10735   0.69052   0.59167   0.00000  Uiso   1.00
C187   C     0.06449   0.73976   0.59967   0.00000  Uiso   1.00
C188   C     0.97442   0.73805   0.61421   0.00000  Uiso   1.00
C189   C     0.82892   0.75721   0.63815   0.00000  Uiso   1.00
C190   C     0.18405   0.64870   0.47666   0.00000  Uiso   1.00
C191   C     0.20569   0.66279   0.38797   0.00000  Uiso   1.00
C192   C     0.18020   0.62588   0.30570   0.00000  Uiso   1.00
C193   C     0.15385   0.58011   0.15111   0.00000  Uiso   1.00
C194   C     0.26769   0.64766   0.66642   0.00000  Uiso   1.00
C195   C     0.35967   0.66087   0.73727   0.00000  Uiso   1.00
C196   C     0.40461   0.62307   0.81475   0.00000  Uiso   1.00
C197   C     0.50811   0.57569   0.95479   0.00000  Uiso   1.00
C198   C     0.12175   0.59237   0.58721   0.00000  Uiso   1.00
C199   C     0.06186   0.64129   0.59797   0.00000  Uiso   1.00
C200   C     0.97184   0.63950   0.61251   0.00000  Uiso   1.00
C201   C     0.92885   0.68874   0.62053   0.00000  Uiso   1.00
C202   C     0.13856   0.59948   0.48296   0.00000  Uiso   1.00
C203   C     0.11304   0.56253   0.40081   0.00000  Uiso   1.00
C204   C     0.13463   0.57656   0.31201   0.00000  Uiso   1.00
C205   C     0.22220   0.59844   0.67273   0.00000  Uiso   1.00
C206   C     0.26701   0.56061   0.75011   0.00000  Uiso   1.00
C207   C     0.35904   0.57376   0.82106   0.00000  Uiso   1.00
H208   H     0.24090   0.72131   0.57069   0.00000  Uiso   1.00
H209   H     0.09971   0.77785   0.59478   0.00000  Uiso   1.00
H210   H     0.24090   0.70089   0.38312   0.00000  Uiso   1.00
H211   H     0.39484   0.69897   0.73236   0.00000  Uiso   1.00
H212   H     0.92309   0.81882   0.62423   0.00000  Uiso   1.00
H213   H     0.22083   0.65653   0.17794   0.00000  Uiso   1.00
H214   H     0.54546   0.65248   0.91439   0.00000  Uiso   1.00
H215   H     0.08634   0.55405   0.59212   0.00000  Uiso   1.00
H216   H     0.93666   0.60140   0.61738   0.00000  Uiso   1.00
H217   H     0.07784   0.52444   0.40572   0.00000  Uiso   1.00
H218   H     0.23179   0.52252   0.75496   0.00000  Uiso   1.00
H219   H     0.79075   0.67561   0.64257   0.00000  Uiso   1.00
H220   H     0.08849   0.51332   0.19628   0.00000  Uiso   1.00
H221   H     0.41311   0.50927   0.93273   0.00000  Uiso   1.00
O222   O     0.76123   0.78138   0.64960   0.00000  Uiso   1.00
O223   O     0.15187   0.56847   0.06409   0.00000  Uiso   1.00
O224   O     0.57777   0.56316   0.03030   0.00000  Uiso   1.00
N225   N     0.91250   0.77861   0.62510   0.00000  Uiso   1.00
N226   N     0.19085   0.62689   0.20784   0.00000  Uiso   1.00
N227   N     0.49436   0.62310   0.89634   0.00000  Uiso   1.00
N228   N     0.84128   0.70155   0.63497   0.00000  Uiso   1.00
N229   N     0.11963   0.54983   0.21771   0.00000  Uiso   1.00
N230   N     0.42315   0.54604   0.90621   0.00000  Uiso   1.00
C231   C     0.70549   0.18299   0.57561   0.00000  Uiso   1.00
C232   C     0.60735   0.19052   0.59167   0.00000  Uiso   1.00
C233   C     0.56449   0.23976   0.59967   0.00000  Uiso   1.00
C234   C     0.47442   0.23805   0.61421   0.00000  Uiso   1.00
C235   C     0.32892   0.25721   0.63815   0.00000  Uiso   1.00
C236   C     0.68405   0.14870   0.47666   0.00000  Uiso   1.00
C237   C     0.70569   0.16279   0.38797   0.00000  Uiso   1.00
C238   C     0.68020   0.12588   0.30570   0.00000  Uiso   1.00
C239   C     0.65385   0.08011   0.15111   0.00000  Uiso   1.00
C240   C     0.76769   0.14766   0.66642   0.00000  Uiso   1.00
C241   C     0.85967   0.16087   0.73727   0.00000  Uiso   1.00
C242   C     0.90461   0.12307   0.81475   0.00000  Uiso   1.00
C243   C     0.00811   0.07569   0.95479   0.00000  Uiso   1.00
C244   C     0.62175   0.09237   0.58721   0.00000  Uiso   1.00
C245   C     0.56186   0.14129   0.59797   0.00000  Uiso   1.00
C246   C     0.47184   0.13950   0.61251   0.00000  Uiso   1.00
C247   C     0.42885   0.18874   0.62053   0.00000  Uiso   1.00
C248   C     0.63856   0.09948   0.48296   0.00000  Uiso   1.00
C249   C     0.61304   0.06253   0.40081   0.00000  Uiso   1.00
C250   C     0.63463   0.07656   0.31201   0.00000  Uiso   1.00
C251   C     0.72220   0.09844   0.67273   0.00000  Uiso   1.00
C252   C     0.76701   0.06061   0.75011   0.00000  Uiso   1.00
C253   C     0.85904   0.07376   0.82106   0.00000  Uiso   1.00
H254   H     0.74090   0.22131   0.57069   0.00000  Uiso   1.00
H255   H     0.59971   0.27785   0.59478   0.00000  Uiso   1.00
H256   H     0.74090   0.20089   0.38312   0.00000  Uiso   1.00
H257   H     0.89484   0.19897   0.73236   0.00000  Uiso   1.00
H258   H     0.42309   0.31882   0.62423   0.00000  Uiso   1.00
H259   H     0.72083   0.15653   0.17794   0.00000  Uiso   1.00
H260   H     0.04546   0.15248   0.91439   0.00000  Uiso   1.00
H261   H     0.58634   0.05405   0.59212   0.00000  Uiso   1.00
H262   H     0.43666   0.10140   0.61738   0.00000  Uiso   1.00
H263   H     0.57784   0.02444   0.40572   0.00000  Uiso   1.00
H264   H     0.73179   0.02252   0.75496   0.00000  Uiso   1.00
H265   H     0.29075   0.17561   0.64257   0.00000  Uiso   1.00
H266   H     0.58849   0.01332   0.19628   0.00000  Uiso   1.00
H267   H     0.91311   0.00927   0.93273   0.00000  Uiso   1.00
O268   O     0.26123   0.28138   0.64960   0.00000  Uiso   1.00
O269   O     0.65187   0.06847   0.06409   0.00000  Uiso   1.00
O270   O     0.07777   0.06316   0.03030   0.00000  Uiso   1.00
N271   N     0.41250   0.27861   0.62510   0.00000  Uiso   1.00
N272   N     0.69085   0.12689   0.20784   0.00000  Uiso   1.00
N273   N     0.99436   0.12310   0.89634   0.00000  Uiso   1.00
N274   N     0.34128   0.20155   0.63497   0.00000  Uiso   1.00
N275   N     0.61963   0.04983   0.21771   0.00000  Uiso   1.00
N276   N     0.92315   0.04604   0.90621   0.00000  Uiso   1.00
C277   C     0.79451   0.68299   0.92439   0.00000  Uiso   1.00
C278   C     0.89265   0.69052   0.90833   0.00000  Uiso   1.00
C279   C     0.93551   0.73976   0.90033   0.00000  Uiso   1.00
C280   C     0.02558   0.73805   0.88579   0.00000  Uiso   1.00
C281   C     0.17108   0.75721   0.86185   0.00000  Uiso   1.00
C282   C     0.81595   0.64870   0.02334   0.00000  Uiso   1.00
C283   C     0.79431   0.66279   0.11203   0.00000  Uiso   1.00
C284   C     0.81980   0.62588   0.19430   0.00000  Uiso   1.00
C285   C     0.84615   0.58011   0.34889   0.00000  Uiso   1.00
C286   C     0.73231   0.64766   0.83358   0.00000  Uiso   1.00
C287   C     0.64033   0.66087   0.76273   0.00000  Uiso   1.00
C288   C     0.59539   0.62307   0.68525   0.00000  Uiso   1.00
C289   C     0.49189   0.57569   0.54521   0.00000  Uiso   1.00
C290   C     0.87825   0.59237   0.91279   0.00000  Uiso   1.00
C291   C     0.93814   0.64129   0.90203   0.00000  Uiso   1.00
C292   C     0.02816   0.63950   0.88749   0.00000  Uiso   1.00
C293   C     0.07115   0.68874   0.87947   0.00000  Uiso   1.00
C294   C     0.86144   0.59948   0.01704   0.00000  Uiso   1.00
C295   C     0.88696   0.56253   0.09919   0.00000  Uiso   1.00
C296   C     0.86537   0.57656   0.18799   0.00000  Uiso   1.00
C297   C     0.77780   0.59844   0.82727   0.00000  Uiso   1.00
C298   C     0.73299   0.56061   0.74989   0.00000  Uiso   1.00
C299   C     0.64096   0.57376   0.67894   0.00000  Uiso   1.00
H300   H     0.75910   0.72131   0.92931   0.00000  Uiso   1.00
H301   H     0.90029   0.77785   0.90522   0.00000  Uiso   1.00
H302   H     0.75910   0.70089   0.11688   0.00000  Uiso   1.00
H303   H     0.60516   0.69897   0.76764   0.00000  Uiso   1.00
H304   H     0.07691   0.81882   0.87577   0.00000  Uiso   1.00
H305   H     0.77917   0.65653   0.32206   0.00000  Uiso   1.00
H306   H     0.45454   0.65248   0.58561   0.00000  Uiso   1.00
H307   H     0.91366   0.55405   0.90788   0.00000  Uiso   1.00
H308   H     0.06334   0.60140   0.88262   0.00000  Uiso   1.00
H309   H     0.92216   0.52444   0.09428   0.00000  Uiso   1.00
H310   H     0.76821   0.52252   0.74504   0.00000  Uiso   1.00
H311   H     0.20925   0.67561   0.85743   0.00000  Uiso   1.00
H312   H     0.91151   0.51332   0.30372   0.00000  Uiso   1.00
H313   H     0.58689   0.50927   0.56727   0.00000  Uiso   1.00
O314   O     0.23877   0.78138   0.85040   0.00000  Uiso   1.00
O315   O     0.84813   0.56847   0.43591   0.00000  Uiso   1.00
O316   O     0.42223   0.56316   0.46970   0.00000  Uiso   1.00
N317   N     0.08750   0.77861   0.87490   0.00000  Uiso   1.00
N318   N     0.80915   0.62689   0.29216   0.00000  Uiso   1.00
N319   N     0.50564   0.62310   0.60366   0.00000  Uiso   1.00
N320   N     0.15872   0.70155   0.86503   0.00000  Uiso   1.00
N321   N     0.88037   0.54983   0.28229   0.00000  Uiso   1.00
N322   N     0.57685   0.54604   0.59379   0.00000  Uiso   1.00
C323   C     0.29451   0.18299   0.92439   0.00000  Uiso   1.00
C324   C     0.39265   0.19052   0.90833   0.00000  Uiso   1.00
C325   C     0.43551   0.23976   0.90033   0.00000  Uiso   1.00
C326   C     0.52558   0.23805   0.88579   0.00000  Uiso   1.00
C327   C     0.67108   0.25721   0.86185   0.00000  Uiso   1.00
C328   C     0.31595   0.14870   0.02334   0.00000  Uiso   1.00
C329   C     0.29431   0.16279   0.11203   0.00000  Uiso   1.00
C330   C     0.31980   0.12588   0.19430   0.00000  Uiso   1.00
C331   C     0.34615   0.08011   0.34889   0.00000  Uiso   1.00
C332   C     0.23231   0.14766   0.83358   0.00000  Uiso   1.00
C333   C     0.14033   0.16087   0.76273   0.00000  Uiso   1.00
C334   C     0.09539   0.12307   0.68525   0.00000  Uiso   1.00
C335   C     0.99189   0.07569   0.54521   0.00000  Uiso   1.00
C336   C     0.37825   0.09237   0.91279   0.00000  Uiso   1.00
C337   C     0.43814   0.14129   0.90203   0.00000  Uiso   1.00
C338   C     0.52816   0.13950   0.88749   0.00000  Uiso   1.00
C339   C     0.57115   0.18874   0.87947   0.00000  Uiso   1.00
C340   C     0.36144   0.09948   0.01704   0.00000  Uiso   1.00
C341   C     0.38696   0.06253   0.09919   0.00000  Uiso   1.00
C342   C     0.36537   0.07656   0.18799   0.00000  Uiso   1.00
C343   C     0.27780   0.09844   0.82727   0.00000  Uiso   1.00
C344   C     0.23299   0.06061   0.74989   0.00000  Uiso   1.00
C345   C     0.14096   0.07376   0.67894   0.00000  Uiso   1.00
H346   H     0.25910   0.22131   0.92931   0.00000  Uiso   1.00
H347   H     0.40029   0.27785   0.90522   0.00000  Uiso   1.00
H348   H     0.25910   0.20089   0.11688   0.00000  Uiso   1.00
H349   H     0.10516   0.19897   0.76764   0.00000  Uiso   1.00
H350   H     0.57691   0.31882   0.87577   0.00000  Uiso   1.00
H351   H     0.27917   0.15653   0.32206   0.00000  Uiso   1.00
H352   H     0.95454   0.15248   0.58561   0.00000  Uiso   1.00
H353   H     0.41366   0.05405   0.90788   0.00000  Uiso   1.00
H354   H     0.56334   0.10140   0.88262   0.00000  Uiso   1.00
H355   H     0.42216   0.02444   0.09428   0.00000  Uiso   1.00
H356   H     0.26821   0.02252   0.74504   0.00000  Uiso   1.00
H357   H     0.70925   0.17561   0.85743   0.00000  Uiso   1.00
H358   H     0.41151   0.01332   0.30372   0.00000  Uiso   1.00
H359   H     0.08689   0.00927   0.56727   0.00000  Uiso   1.00
O360   O     0.73877   0.28138   0.85040   0.00000  Uiso   1.00
O361   O     0.34813   0.06847   0.43591   0.00000  Uiso   1.00
O362   O     0.92223   0.06316   0.46970   0.00000  Uiso   1.00
N363   N     0.58750   0.27861   0.87490   0.00000  Uiso   1.00
N364   N     0.30915   0.12689   0.29216   0.00000  Uiso   1.00
N365   N     0.00564   0.12310   0.60366   0.00000  Uiso   1.00
N366   N     0.65872   0.20155   0.86503   0.00000  Uiso   1.00
N367   N     0.38037   0.04983   0.28229   0.00000  Uiso   1.00
N368   N     0.07685   0.04604   0.59379   0.00000  Uiso   1.00
