data_job_03638
_audit_creation_date              2018-12-19
_audit_creation_method            'Materials Studio'
_symmetry_space_group_name_H-M    'P1'
_symmetry_Int_Tables_number       1
_symmetry_cell_setting            triclinic
loop_
_symmetry_equiv_pos_as_xyz
  x,y,z
_cell_length_a                    33.6005
_cell_length_b                    33.6005
_cell_length_c                    7.1638
_cell_angle_alpha                 90.0000
_cell_angle_beta                  90.0000
_cell_angle_gamma                 120.0000
loop_
_atom_site_label
_atom_site_type_symbol
_atom_site_fract_x
_atom_site_fract_y
_atom_site_fract_z
_atom_site_U_iso_or_equiv
_atom_site_adp_type
_atom_site_occupancy
C1     C     0.90355   0.56292   0.06581   0.00000  Uiso   1.00
C2     C     0.94665   0.59674   0.95925   0.00000  Uiso   1.00
C3     C     0.98804   0.62899   0.03874   0.00000  Uiso   1.00
C4     C     0.02336   0.65675   0.91733   0.00000  Uiso   1.00
C5     C     0.09117   0.70993   0.78137   0.00000  Uiso   1.00
C6     C     0.86533   0.57128   0.99777   0.00000  Uiso   1.00
C7     C     0.83836   0.58211   0.10965   0.00000  Uiso   1.00
C8     C     0.80522   0.58842   0.02066   0.00000  Uiso   1.00
C9     C     0.74677   0.60204   0.94451   0.00000  Uiso   1.00
C10    C     0.89119   0.51525   0.99579   0.00000  Uiso   1.00
C11    C     0.88595   0.47896   0.10601   0.00000  Uiso   1.00
C12    C     0.87457   0.43811   0.01535   0.00000  Uiso   1.00
C13    C     0.85628   0.36473   0.93613   0.00000  Uiso   1.00
C14    C     0.89265   0.55488   0.70884   0.00000  Uiso   1.00
C15    C     0.94072   0.59237   0.76536   0.00000  Uiso   1.00
C16    C     0.97599   0.62008   0.64380   0.00000  Uiso   1.00
C17    C     0.01743   0.65237   0.72309   0.00000  Uiso   1.00
C18    C     0.85941   0.56691   0.80388   0.00000  Uiso   1.00
C19    C     0.82630   0.57320   0.71471   0.00000  Uiso   1.00
C20    C     0.79928   0.58404   0.82642   0.00000  Uiso   1.00
C21    C     0.88527   0.51088   0.80190   0.00000  Uiso   1.00
C22    C     0.87390   0.47006   0.71106   0.00000  Uiso   1.00
C23    C     0.86864   0.43373   0.82112   0.00000  Uiso   1.00
H24    H     0.90815   0.56633   0.21676   0.00000  Uiso   1.00
H25    H     0.99261   0.63236   0.18880   0.00000  Uiso   1.00
H26    H     0.84294   0.58548   0.25969   0.00000  Uiso   1.00
H27    H     0.89053   0.48236   0.25604   0.00000  Uiso   1.00
H28    H     0.08363   0.70366   0.07229   0.00000  Uiso   1.00
H29    H     0.76804   0.60479   0.22178   0.00000  Uiso   1.00
H30    H     0.86839   0.38734   0.21410   0.00000  Uiso   1.00
H31    H     0.88804   0.55147   0.55788   0.00000  Uiso   1.00
H32    H     0.97139   0.61669   0.49376   0.00000  Uiso   1.00
H33    H     0.82173   0.56982   0.56466   0.00000  Uiso   1.00
H34    H     0.86932   0.46669   0.56101   0.00000  Uiso   1.00
H35    H     0.06641   0.69094   0.50817   0.00000  Uiso   1.00
H36    H     0.75082   0.59208   0.65767   0.00000  Uiso   1.00
H37    H     0.85117   0.37462   0.64998   0.00000  Uiso   1.00
O38    O     0.13021   0.74048   0.75994   0.00000  Uiso   1.00
O39    O     0.71616   0.61077   0.95607   0.00000  Uiso   1.00
O40    O     0.84783   0.32547   0.94599   0.00000  Uiso   1.00
N41    N     0.06814   0.69171   0.94832   0.00000  Uiso   1.00
N42    N     0.77309   0.59928   0.08809   0.00000  Uiso   1.00
N43    N     0.86690   0.39598   0.08091   0.00000  Uiso   1.00
N44    N     0.05887   0.68486   0.64478   0.00000  Uiso   1.00
N45    N     0.76382   0.59244   0.78454   0.00000  Uiso   1.00
N46    N     0.85763   0.38914   0.77736   0.00000  Uiso   1.00
C47    C     0.43708   0.34062   0.73248   0.00000  Uiso   1.00
C48    C     0.40326   0.34991   0.62592   0.00000  Uiso   1.00
C49    C     0.37101   0.35905   0.70541   0.00000  Uiso   1.00
C50    C     0.34325   0.36661   0.58400   0.00000  Uiso   1.00
C51    C     0.29007   0.38124   0.44804   0.00000  Uiso   1.00
C52    C     0.42872   0.29406   0.66443   0.00000  Uiso   1.00
C53    C     0.41789   0.25625   0.77632   0.00000  Uiso   1.00
C54    C     0.41158   0.21679   0.68732   0.00000  Uiso   1.00
C55    C     0.39796   0.14473   0.61117   0.00000  Uiso   1.00
C56    C     0.48475   0.37594   0.66245   0.00000  Uiso   1.00
C57    C     0.52104   0.40699   0.77267   0.00000  Uiso   1.00
C58    C     0.56189   0.43647   0.68202   0.00000  Uiso   1.00
C59    C     0.63527   0.49154   0.60280   0.00000  Uiso   1.00
C60    C     0.44512   0.33777   0.37551   0.00000  Uiso   1.00
C61    C     0.40763   0.34836   0.43203   0.00000  Uiso   1.00
C62    C     0.37992   0.35590   0.31046   0.00000  Uiso   1.00
C63    C     0.34763   0.36506   0.38976   0.00000  Uiso   1.00
C64    C     0.43309   0.29251   0.47055   0.00000  Uiso   1.00
C65    C     0.42680   0.25310   0.38137   0.00000  Uiso   1.00
C66    C     0.41596   0.21524   0.49309   0.00000  Uiso   1.00
C67    C     0.48912   0.37440   0.46856   0.00000  Uiso   1.00
C68    C     0.52994   0.40383   0.37773   0.00000  Uiso   1.00
C69    C     0.56627   0.43491   0.48778   0.00000  Uiso   1.00
H70    H     0.43367   0.34182   0.88343   0.00000  Uiso   1.00
H71    H     0.36764   0.36025   0.85547   0.00000  Uiso   1.00
H72    H     0.41452   0.25746   0.92636   0.00000  Uiso   1.00
H73    H     0.51764   0.40817   0.92271   0.00000  Uiso   1.00
H74    H     0.29634   0.37997   0.73896   0.00000  Uiso   1.00
H75    H     0.39521   0.16325   0.88844   0.00000  Uiso   1.00
H76    H     0.61266   0.48105   0.88076   0.00000  Uiso   1.00
H77    H     0.44853   0.33656   0.22455   0.00000  Uiso   1.00
H78    H     0.38331   0.35470   0.16043   0.00000  Uiso   1.00
H79    H     0.43018   0.25191   0.23133   0.00000  Uiso   1.00
H80    H     0.53331   0.40262   0.22768   0.00000  Uiso   1.00
H81    H     0.30906   0.37547   0.17484   0.00000  Uiso   1.00
H82    H     0.40792   0.15874   0.32433   0.00000  Uiso   1.00
H83    H     0.62538   0.47655   0.31665   0.00000  Uiso   1.00
O84    O     0.25952   0.38973   0.42660   0.00000  Uiso   1.00
O85    O     0.38923   0.10540   0.62274   0.00000  Uiso   1.00
O86    O     0.67453   0.52235   0.61266   0.00000  Uiso   1.00
N87    N     0.30829   0.37643   0.61499   0.00000  Uiso   1.00
N88    N     0.40072   0.17380   0.75475   0.00000  Uiso   1.00
N89    N     0.60402   0.47092   0.74758   0.00000  Uiso   1.00
N90    N     0.31514   0.37401   0.31144   0.00000  Uiso   1.00
N91    N     0.40756   0.17138   0.45121   0.00000  Uiso   1.00
N92    N     0.61086   0.46850   0.44403   0.00000  Uiso   1.00
C93    C     0.65938   0.09645   0.39914   0.00000  Uiso   1.00
C94    C     0.65009   0.05335   0.29258   0.00000  Uiso   1.00
C95    C     0.64095   0.01196   0.37207   0.00000  Uiso   1.00
C96    C     0.63339   0.97664   0.25067   0.00000  Uiso   1.00
C97    C     0.61876   0.90883   0.11470   0.00000  Uiso   1.00
C98    C     0.70594   0.13467   0.33110   0.00000  Uiso   1.00
C99    C     0.74375   0.16164   0.44298   0.00000  Uiso   1.00
C100   C     0.78321   0.19478   0.35399   0.00000  Uiso   1.00
C101   C     0.85527   0.25323   0.27784   0.00000  Uiso   1.00
C102   C     0.62406   0.10881   0.32912   0.00000  Uiso   1.00
C103   C     0.59301   0.11405   0.43934   0.00000  Uiso   1.00
C104   C     0.56353   0.12543   0.34869   0.00000  Uiso   1.00
C105   C     0.50846   0.14372   0.26947   0.00000  Uiso   1.00
C106   C     0.66223   0.10735   0.04218   0.00000  Uiso   1.00
C107   C     0.65164   0.05928   0.09869   0.00000  Uiso   1.00
C108   C     0.64410   0.02401   0.97713   0.00000  Uiso   1.00
C109   C     0.63494   0.98257   0.05643   0.00000  Uiso   1.00
C110   C     0.70749   0.14059   0.13722   0.00000  Uiso   1.00
C111   C     0.74690   0.17370   0.04804   0.00000  Uiso   1.00
C112   C     0.78476   0.20072   0.15975   0.00000  Uiso   1.00
C113   C     0.62560   0.11473   0.13523   0.00000  Uiso   1.00
C114   C     0.59617   0.12610   0.04439   0.00000  Uiso   1.00
C115   C     0.56509   0.13136   0.15445   0.00000  Uiso   1.00
H116   H     0.65818   0.09185   0.55009   0.00000  Uiso   1.00
H117   H     0.63975   0.00739   0.52213   0.00000  Uiso   1.00
H118   H     0.74254   0.15706   0.59302   0.00000  Uiso   1.00
H119   H     0.59183   0.10947   0.58938   0.00000  Uiso   1.00
H120   H     0.62003   0.91637   0.40562   0.00000  Uiso   1.00
H121   H     0.83675   0.23196   0.55511   0.00000  Uiso   1.00
H122   H     0.51895   0.13161   0.54743   0.00000  Uiso   1.00
H123   H     0.66344   0.11196   0.89122   0.00000  Uiso   1.00
H124   H     0.64530   0.02861   0.82709   0.00000  Uiso   1.00
H125   H     0.74809   0.17827   0.89799   0.00000  Uiso   1.00
H126   H     0.59738   0.13068   0.89435   0.00000  Uiso   1.00
H127   H     0.62453   0.93359   0.84150   0.00000  Uiso   1.00
H128   H     0.84126   0.24918   0.99100   0.00000  Uiso   1.00
H129   H     0.52345   0.14883   0.98331   0.00000  Uiso   1.00
O130   O     0.61027   0.86979   0.09327   0.00000  Uiso   1.00
O131   O     0.89460   0.28384   0.28940   0.00000  Uiso   1.00
O132   O     0.47765   0.15217   0.27932   0.00000  Uiso   1.00
N133   N     0.62357   0.93186   0.28166   0.00000  Uiso   1.00
N134   N     0.82620   0.22691   0.42142   0.00000  Uiso   1.00
N135   N     0.52908   0.13310   0.41424   0.00000  Uiso   1.00
N136   N     0.62599   0.94113   0.97811   0.00000  Uiso   1.00
N137   N     0.82862   0.23618   0.11787   0.00000  Uiso   1.00
N138   N     0.53150   0.14237   0.11070   0.00000  Uiso   1.00
C139   C     0.09645   0.43708   0.06581   0.00000  Uiso   1.00
C140   C     0.05335   0.40326   0.95925   0.00000  Uiso   1.00
C141   C     0.01196   0.37101   0.03874   0.00000  Uiso   1.00
C142   C     0.97664   0.34325   0.91733   0.00000  Uiso   1.00
C143   C     0.90883   0.29007   0.78137   0.00000  Uiso   1.00
C144   C     0.13467   0.42872   0.99777   0.00000  Uiso   1.00
C145   C     0.16164   0.41789   0.10965   0.00000  Uiso   1.00
C146   C     0.19478   0.41158   0.02066   0.00000  Uiso   1.00
C147   C     0.25323   0.39796   0.94451   0.00000  Uiso   1.00
C148   C     0.10881   0.48475   0.99579   0.00000  Uiso   1.00
C149   C     0.11405   0.52104   0.10601   0.00000  Uiso   1.00
C150   C     0.12543   0.56189   0.01535   0.00000  Uiso   1.00
C151   C     0.14372   0.63527   0.93613   0.00000  Uiso   1.00
C152   C     0.10735   0.44512   0.70884   0.00000  Uiso   1.00
C153   C     0.05928   0.40763   0.76536   0.00000  Uiso   1.00
C154   C     0.02401   0.37992   0.64380   0.00000  Uiso   1.00
C155   C     0.98257   0.34763   0.72309   0.00000  Uiso   1.00
C156   C     0.14059   0.43309   0.80388   0.00000  Uiso   1.00
C157   C     0.17370   0.42680   0.71471   0.00000  Uiso   1.00
C158   C     0.20072   0.41596   0.82642   0.00000  Uiso   1.00
C159   C     0.11473   0.48912   0.80190   0.00000  Uiso   1.00
C160   C     0.12610   0.52994   0.71106   0.00000  Uiso   1.00
C161   C     0.13136   0.56627   0.82112   0.00000  Uiso   1.00
H162   H     0.09185   0.43367   0.21676   0.00000  Uiso   1.00
H163   H     0.00739   0.36764   0.18880   0.00000  Uiso   1.00
H164   H     0.15706   0.41452   0.25969   0.00000  Uiso   1.00
H165   H     0.10947   0.51764   0.25604   0.00000  Uiso   1.00
H166   H     0.91637   0.29634   0.07229   0.00000  Uiso   1.00
H167   H     0.23196   0.39521   0.22178   0.00000  Uiso   1.00
H168   H     0.13161   0.61266   0.21410   0.00000  Uiso   1.00
H169   H     0.11196   0.44853   0.55788   0.00000  Uiso   1.00
H170   H     0.02861   0.38331   0.49376   0.00000  Uiso   1.00
H171   H     0.17827   0.43018   0.56466   0.00000  Uiso   1.00
H172   H     0.13068   0.53331   0.56101   0.00000  Uiso   1.00
H173   H     0.93359   0.30906   0.50817   0.00000  Uiso   1.00
H174   H     0.24918   0.40792   0.65767   0.00000  Uiso   1.00
H175   H     0.14883   0.62538   0.64998   0.00000  Uiso   1.00
O176   O     0.86979   0.25952   0.75994   0.00000  Uiso   1.00
O177   O     0.28384   0.38923   0.95607   0.00000  Uiso   1.00
O178   O     0.15217   0.67453   0.94599   0.00000  Uiso   1.00
N179   N     0.93186   0.30829   0.94832   0.00000  Uiso   1.00
N180   N     0.22691   0.40072   0.08809   0.00000  Uiso   1.00
N181   N     0.13310   0.60402   0.08091   0.00000  Uiso   1.00
N182   N     0.94113   0.31514   0.64478   0.00000  Uiso   1.00
N183   N     0.23618   0.40756   0.78454   0.00000  Uiso   1.00
N184   N     0.14237   0.61086   0.77736   0.00000  Uiso   1.00
C185   C     0.56292   0.65938   0.73248   0.00000  Uiso   1.00
C186   C     0.59674   0.65009   0.62592   0.00000  Uiso   1.00
C187   C     0.62899   0.64095   0.70541   0.00000  Uiso   1.00
C188   C     0.65675   0.63339   0.58400   0.00000  Uiso   1.00
C189   C     0.70993   0.61876   0.44804   0.00000  Uiso   1.00
C190   C     0.57128   0.70594   0.66443   0.00000  Uiso   1.00
C191   C     0.58211   0.74375   0.77632   0.00000  Uiso   1.00
C192   C     0.58842   0.78321   0.68732   0.00000  Uiso   1.00
C193   C     0.60204   0.85527   0.61117   0.00000  Uiso   1.00
C194   C     0.51525   0.62406   0.66245   0.00000  Uiso   1.00
C195   C     0.47896   0.59301   0.77267   0.00000  Uiso   1.00
C196   C     0.43811   0.56353   0.68202   0.00000  Uiso   1.00
C197   C     0.36473   0.50846   0.60280   0.00000  Uiso   1.00
C198   C     0.55488   0.66223   0.37551   0.00000  Uiso   1.00
C199   C     0.59237   0.65164   0.43203   0.00000  Uiso   1.00
C200   C     0.62008   0.64410   0.31046   0.00000  Uiso   1.00
C201   C     0.65237   0.63494   0.38976   0.00000  Uiso   1.00
C202   C     0.56691   0.70749   0.47055   0.00000  Uiso   1.00
C203   C     0.57320   0.74690   0.38137   0.00000  Uiso   1.00
C204   C     0.58404   0.78476   0.49309   0.00000  Uiso   1.00
C205   C     0.51088   0.62560   0.46856   0.00000  Uiso   1.00
C206   C     0.47006   0.59617   0.37773   0.00000  Uiso   1.00
C207   C     0.43373   0.56509   0.48778   0.00000  Uiso   1.00
H208   H     0.56633   0.65818   0.88343   0.00000  Uiso   1.00
H209   H     0.63236   0.63975   0.85547   0.00000  Uiso   1.00
H210   H     0.58548   0.74254   0.92636   0.00000  Uiso   1.00
H211   H     0.48236   0.59183   0.92271   0.00000  Uiso   1.00
H212   H     0.70366   0.62003   0.73896   0.00000  Uiso   1.00
H213   H     0.60479   0.83675   0.88844   0.00000  Uiso   1.00
H214   H     0.38734   0.51895   0.88076   0.00000  Uiso   1.00
H215   H     0.55147   0.66344   0.22455   0.00000  Uiso   1.00
H216   H     0.61669   0.64530   0.16043   0.00000  Uiso   1.00
H217   H     0.56982   0.74809   0.23133   0.00000  Uiso   1.00
H218   H     0.46669   0.59738   0.22768   0.00000  Uiso   1.00
H219   H     0.69094   0.62453   0.17484   0.00000  Uiso   1.00
H220   H     0.59208   0.84126   0.32433   0.00000  Uiso   1.00
H221   H     0.37462   0.52345   0.31665   0.00000  Uiso   1.00
O222   O     0.74048   0.61027   0.42660   0.00000  Uiso   1.00
O223   O     0.61077   0.89460   0.62274   0.00000  Uiso   1.00
O224   O     0.32547   0.47765   0.61266   0.00000  Uiso   1.00
N225   N     0.69171   0.62357   0.61499   0.00000  Uiso   1.00
N226   N     0.59928   0.82620   0.75475   0.00000  Uiso   1.00
N227   N     0.39598   0.52908   0.74758   0.00000  Uiso   1.00
N228   N     0.68486   0.62599   0.31144   0.00000  Uiso   1.00
N229   N     0.59244   0.82862   0.45121   0.00000  Uiso   1.00
N230   N     0.38914   0.53150   0.44403   0.00000  Uiso   1.00
C231   C     0.34062   0.90355   0.39914   0.00000  Uiso   1.00
C232   C     0.34991   0.94665   0.29258   0.00000  Uiso   1.00
C233   C     0.35905   0.98804   0.37207   0.00000  Uiso   1.00
C234   C     0.36661   0.02336   0.25067   0.00000  Uiso   1.00
C235   C     0.38124   0.09117   0.11470   0.00000  Uiso   1.00
C236   C     0.29406   0.86533   0.33110   0.00000  Uiso   1.00
C237   C     0.25625   0.83836   0.44298   0.00000  Uiso   1.00
C238   C     0.21679   0.80522   0.35399   0.00000  Uiso   1.00
C239   C     0.14473   0.74677   0.27784   0.00000  Uiso   1.00
C240   C     0.37594   0.89119   0.32912   0.00000  Uiso   1.00
C241   C     0.40699   0.88595   0.43934   0.00000  Uiso   1.00
C242   C     0.43647   0.87457   0.34869   0.00000  Uiso   1.00
C243   C     0.49154   0.85628   0.26947   0.00000  Uiso   1.00
C244   C     0.33777   0.89265   0.04218   0.00000  Uiso   1.00
C245   C     0.34836   0.94072   0.09869   0.00000  Uiso   1.00
C246   C     0.35590   0.97599   0.97713   0.00000  Uiso   1.00
C247   C     0.36506   0.01743   0.05643   0.00000  Uiso   1.00
C248   C     0.29251   0.85941   0.13722   0.00000  Uiso   1.00
C249   C     0.25310   0.82630   0.04804   0.00000  Uiso   1.00
C250   C     0.21524   0.79928   0.15975   0.00000  Uiso   1.00
C251   C     0.37440   0.88527   0.13523   0.00000  Uiso   1.00
C252   C     0.40383   0.87390   0.04439   0.00000  Uiso   1.00
C253   C     0.43491   0.86864   0.15445   0.00000  Uiso   1.00
H254   H     0.34182   0.90815   0.55009   0.00000  Uiso   1.00
H255   H     0.36025   0.99261   0.52213   0.00000  Uiso   1.00
H256   H     0.25746   0.84294   0.59302   0.00000  Uiso   1.00
H257   H     0.40817   0.89053   0.58938   0.00000  Uiso   1.00
H258   H     0.37997   0.08363   0.40562   0.00000  Uiso   1.00
H259   H     0.16325   0.76804   0.55511   0.00000  Uiso   1.00
H260   H     0.48105   0.86839   0.54743   0.00000  Uiso   1.00
H261   H     0.33656   0.88804   0.89122   0.00000  Uiso   1.00
H262   H     0.35470   0.97139   0.82709   0.00000  Uiso   1.00
H263   H     0.25191   0.82173   0.89799   0.00000  Uiso   1.00
H264   H     0.40262   0.86932   0.89435   0.00000  Uiso   1.00
H265   H     0.37547   0.06641   0.84150   0.00000  Uiso   1.00
H266   H     0.15874   0.75082   0.99100   0.00000  Uiso   1.00
H267   H     0.47655   0.85117   0.98331   0.00000  Uiso   1.00
O268   O     0.38973   0.13021   0.09327   0.00000  Uiso   1.00
O269   O     0.10540   0.71616   0.28940   0.00000  Uiso   1.00
O270   O     0.52235   0.84783   0.27932   0.00000  Uiso   1.00
N271   N     0.37643   0.06814   0.28166   0.00000  Uiso   1.00
N272   N     0.17380   0.77309   0.42142   0.00000  Uiso   1.00
N273   N     0.47092   0.86690   0.41424   0.00000  Uiso   1.00
N274   N     0.37401   0.05887   0.97811   0.00000  Uiso   1.00
N275   N     0.17138   0.76382   0.11787   0.00000  Uiso   1.00
N276   N     0.46850   0.85763   0.11070   0.00000  Uiso   1.00
