data_job_05908
_audit_creation_date              2018-12-19
_audit_creation_method            'Materials Studio'
_symmetry_space_group_name_H-M    'P1'
_symmetry_Int_Tables_number       1
_symmetry_cell_setting            triclinic
loop_
_symmetry_equiv_pos_as_xyz
  x,y,z
_cell_length_a                    19.7509
_cell_length_b                    19.7509
_cell_length_c                    14.2137
_cell_angle_alpha                 90.0000
_cell_angle_beta                  90.0000
_cell_angle_gamma                 120.0000
loop_
_atom_site_label
_atom_site_type_symbol
_atom_site_fract_x
_atom_site_fract_y
_atom_site_fract_z
_atom_site_U_iso_or_equiv
_atom_site_adp_type
_atom_site_occupancy
C1     C     0.84176   0.07183   0.62860   0.00000  Uiso   1.00
C2     C     0.80923   0.98778   0.59534   0.00000  Uiso   1.00
C3     C     0.83378   0.96452   0.51646   0.00000  Uiso   1.00
C4     C     0.79666   0.88487   0.49801   0.00000  Uiso   1.00
C5     C     0.75518   0.76264   0.43747   0.00000  Uiso   1.00
C6     C     0.77200   0.08484   0.63451   0.00000  Uiso   1.00
C7     C     0.76526   0.14320   0.58857   0.00000  Uiso   1.00
C8     C     0.03013   0.81193   0.26976   0.00000  Uiso   1.00
C9     C     0.93088   0.84042   0.27008   0.00000  Uiso   1.00
C10    C     0.86894   0.07428   0.72959   0.00000  Uiso   1.00
C11    C     0.94370   0.12377   0.76361   0.00000  Uiso   1.00
C12    C     0.29018   0.78363   0.52486   0.00000  Uiso   1.00
C13    C     0.67478   0.46239   0.33947   0.00000  Uiso   1.00
C14    C     0.73218   0.97175   0.73609   0.00000  Uiso   1.00
C15    C     0.74971   0.93342   0.65373   0.00000  Uiso   1.00
C16    C     0.71254   0.85379   0.63539   0.00000  Uiso   1.00
C17    C     0.73703   0.83041   0.55650   0.00000  Uiso   1.00
C18    C     0.04582   0.69715   0.35956   0.00000  Uiso   1.00
C19    C     0.97735   0.69914   0.37416   0.00000  Uiso   1.00
C20    C     0.97050   0.75747   0.32825   0.00000  Uiso   1.00
C21    C     0.14276   0.68659   0.45464   0.00000  Uiso   1.00
C22    C     0.15579   0.67970   0.54919   0.00000  Uiso   1.00
C23    C     0.23056   0.72917   0.58335   0.00000  Uiso   1.00
H24    H     0.88809   0.11416   0.58314   0.00000  Uiso   1.00
H25    H     0.87984   0.00661   0.47129   0.00000  Uiso   1.00
H26    H     0.81133   0.18526   0.54340   0.00000  Uiso   1.00
H27    H     0.98974   0.16583   0.71840   0.00000  Uiso   1.00
H28    H     0.84442   0.86340   0.37302   0.00000  Uiso   1.00
H29    H     0.03331   0.90679   0.19175   0.00000  Uiso   1.00
H30    H     0.40953   0.86582   0.56078   0.00000  Uiso   1.00
H31    H     0.01917   0.59609   0.44821   0.00000  Uiso   1.00
H32    H     0.66649   0.81173   0.68058   0.00000  Uiso   1.00
H33    H     0.93131   0.65706   0.41935   0.00000  Uiso   1.00
H34    H     0.10972   0.63763   0.59435   0.00000  Uiso   1.00
H35    H     0.67125   0.70523   0.54288   0.00000  Uiso   1.00
H36    H     0.86014   0.74863   0.36161   0.00000  Uiso   1.00
H37    H     0.56969   0.37432   0.39731   0.00000  Uiso   1.00
O38    O     0.74873   0.71023   0.38794   0.00000  Uiso   1.00
O39    O     0.89257   0.87115   0.25411   0.00000  Uiso   1.00
O40    O     0.71950   0.48407   0.40494   0.00000  Uiso   1.00
N41    N     0.80633   0.84232   0.42686   0.00000  Uiso   1.00
N42    N     0.00461   0.86120   0.23568   0.00000  Uiso   1.00
N43    N     0.35634   0.82291   0.58071   0.00000  Uiso   1.00
N44    N     0.71315   0.75722   0.51826   0.00000  Uiso   1.00
N45    N     0.91143   0.77609   0.32708   0.00000  Uiso   1.00
N46    N     0.26316   0.73780   0.67211   0.00000  Uiso   1.00
C47    C     0.50843   0.40516   0.96193   0.00000  Uiso   1.00
C48    C     0.47590   0.32111   0.92868   0.00000  Uiso   1.00
C49    C     0.50045   0.29785   0.84980   0.00000  Uiso   1.00
C50    C     0.46332   0.21821   0.83134   0.00000  Uiso   1.00
C51    C     0.42185   0.09597   0.77080   0.00000  Uiso   1.00
C52    C     0.43867   0.41818   0.96784   0.00000  Uiso   1.00
C53    C     0.43192   0.47653   0.92190   0.00000  Uiso   1.00
C54    C     0.69680   0.14527   0.60309   0.00000  Uiso   1.00
C55    C     0.59754   0.17376   0.60341   0.00000  Uiso   1.00
C56    C     0.53561   0.40762   0.06292   0.00000  Uiso   1.00
C57    C     0.61037   0.45711   0.09694   0.00000  Uiso   1.00
C58    C     0.95685   0.11696   0.85819   0.00000  Uiso   1.00
C59    C     0.34144   0.79572   0.67280   0.00000  Uiso   1.00
C60    C     0.39885   0.30508   0.06942   0.00000  Uiso   1.00
C61    C     0.41638   0.26675   0.98706   0.00000  Uiso   1.00
C62    C     0.37921   0.18712   0.96872   0.00000  Uiso   1.00
C63    C     0.40370   0.16375   0.88983   0.00000  Uiso   1.00
C64    C     0.71248   0.03048   0.69289   0.00000  Uiso   1.00
C65    C     0.64402   0.03247   0.70749   0.00000  Uiso   1.00
C66    C     0.63717   0.09081   0.66158   0.00000  Uiso   1.00
C67    C     0.80942   0.01992   0.78798   0.00000  Uiso   1.00
C68    C     0.82246   0.01304   0.88253   0.00000  Uiso   1.00
C69    C     0.89722   0.06250   0.91668   0.00000  Uiso   1.00
H70    H     0.55476   0.44749   0.91648   0.00000  Uiso   1.00
H71    H     0.54651   0.33994   0.80463   0.00000  Uiso   1.00
H72    H     0.47800   0.51860   0.87673   0.00000  Uiso   1.00
H73    H     0.65641   0.49917   0.05174   0.00000  Uiso   1.00
H74    H     0.51109   0.19673   0.70635   0.00000  Uiso   1.00
H75    H     0.69998   0.24012   0.52508   0.00000  Uiso   1.00
H76    H     0.07619   0.19915   0.89412   0.00000  Uiso   1.00
H77    H     0.68584   0.92942   0.78154   0.00000  Uiso   1.00
H78    H     0.33315   0.14507   0.01391   0.00000  Uiso   1.00
H79    H     0.59798   0.99039   0.75268   0.00000  Uiso   1.00
H80    H     0.77639   0.97096   0.92769   0.00000  Uiso   1.00
H81    H     0.33792   0.03857   0.87621   0.00000  Uiso   1.00
H82    H     0.52681   0.08196   0.69494   0.00000  Uiso   1.00
H83    H     0.23636   0.70765   0.73064   0.00000  Uiso   1.00
O84    O     0.41540   0.04357   0.72127   0.00000  Uiso   1.00
O85    O     0.55924   0.20449   0.58745   0.00000  Uiso   1.00
O86    O     0.38616   0.81740   0.73828   0.00000  Uiso   1.00
N87    N     0.47300   0.17566   0.76020   0.00000  Uiso   1.00
N88    N     0.67128   0.19453   0.56902   0.00000  Uiso   1.00
N89    N     0.02301   0.15624   0.91404   0.00000  Uiso   1.00
N90    N     0.37982   0.09055   0.85160   0.00000  Uiso   1.00
N91    N     0.57810   0.10942   0.66042   0.00000  Uiso   1.00
N92    N     0.92983   0.07113   0.00544   0.00000  Uiso   1.00
C93    C     0.17509   0.73850   0.29526   0.00000  Uiso   1.00
C94    C     0.14257   0.65445   0.26201   0.00000  Uiso   1.00
C95    C     0.16711   0.63119   0.18313   0.00000  Uiso   1.00
C96    C     0.12999   0.55154   0.16467   0.00000  Uiso   1.00
C97    C     0.08851   0.42930   0.10413   0.00000  Uiso   1.00
C98    C     0.10534   0.75151   0.30118   0.00000  Uiso   1.00
C99    C     0.09859   0.80987   0.25524   0.00000  Uiso   1.00
C100   C     0.36346   0.47860   0.93643   0.00000  Uiso   1.00
C101   C     0.26421   0.50709   0.93675   0.00000  Uiso   1.00
C102   C     0.20228   0.74095   0.39626   0.00000  Uiso   1.00
C103   C     0.27703   0.79044   0.43027   0.00000  Uiso   1.00
C104   C     0.62352   0.45029   0.19152   0.00000  Uiso   1.00
C105   C     0.00811   0.12905   0.00614   0.00000  Uiso   1.00
C106   C     0.06551   0.63841   0.40275   0.00000  Uiso   1.00
C107   C     0.08304   0.60009   0.32040   0.00000  Uiso   1.00
C108   C     0.04588   0.52045   0.30205   0.00000  Uiso   1.00
C109   C     0.07037   0.49708   0.22316   0.00000  Uiso   1.00
C110   C     0.37915   0.36382   0.02622   0.00000  Uiso   1.00
C111   C     0.31069   0.36580   0.04083   0.00000  Uiso   1.00
C112   C     0.30384   0.42414   0.99491   0.00000  Uiso   1.00
C113   C     0.47609   0.35325   0.12131   0.00000  Uiso   1.00
C114   C     0.48913   0.34637   0.21586   0.00000  Uiso   1.00
C115   C     0.56389   0.39583   0.25001   0.00000  Uiso   1.00
H116   H     0.22143   0.78082   0.24981   0.00000  Uiso   1.00
H117   H     0.21317   0.67327   0.13796   0.00000  Uiso   1.00
H118   H     0.14466   0.85193   0.21007   0.00000  Uiso   1.00
H119   H     0.32308   0.83250   0.38507   0.00000  Uiso   1.00
H120   H     0.17775   0.53007   0.03969   0.00000  Uiso   1.00
H121   H     0.36664   0.57345   0.85841   0.00000  Uiso   1.00
H122   H     0.74286   0.53249   0.22745   0.00000  Uiso   1.00
H123   H     0.35250   0.26276   0.11487   0.00000  Uiso   1.00
H124   H     0.99982   0.47840   0.34725   0.00000  Uiso   1.00
H125   H     0.26464   0.32373   0.08601   0.00000  Uiso   1.00
H126   H     0.44305   0.30429   0.26102   0.00000  Uiso   1.00
H127   H     0.00458   0.37190   0.20955   0.00000  Uiso   1.00
H128   H     0.19347   0.41529   0.02828   0.00000  Uiso   1.00
H129   H     0.90303   0.04099   0.06398   0.00000  Uiso   1.00
O130   O     0.08207   0.37690   0.05460   0.00000  Uiso   1.00
O131   O     0.22591   0.53782   0.92078   0.00000  Uiso   1.00
O132   O     0.05283   0.15073   0.07161   0.00000  Uiso   1.00
N133   N     0.13966   0.50899   0.09353   0.00000  Uiso   1.00
N134   N     0.33795   0.52786   0.90235   0.00000  Uiso   1.00
N135   N     0.68967   0.48958   0.24737   0.00000  Uiso   1.00
N136   N     0.04648   0.42388   0.18493   0.00000  Uiso   1.00
N137   N     0.24477   0.44276   0.99375   0.00000  Uiso   1.00
N138   N     0.59649   0.40447   0.33878   0.00000  Uiso   1.00
C139   C     0.92817   0.76993   0.62860   0.00000  Uiso   1.00
C140   C     0.01222   0.82145   0.59534   0.00000  Uiso   1.00
C141   C     0.03548   0.86926   0.51646   0.00000  Uiso   1.00
C142   C     0.11513   0.91178   0.49801   0.00000  Uiso   1.00
C143   C     0.23736   0.99254   0.43747   0.00000  Uiso   1.00
C144   C     0.91516   0.68716   0.63451   0.00000  Uiso   1.00
C145   C     0.85680   0.62206   0.58857   0.00000  Uiso   1.00
C146   C     0.18807   0.21820   0.26976   0.00000  Uiso   1.00
C147   C     0.15958   0.09045   0.27008   0.00000  Uiso   1.00
C148   C     0.92572   0.79466   0.72959   0.00000  Uiso   1.00
C149   C     0.87623   0.81993   0.76361   0.00000  Uiso   1.00
C150   C     0.21637   0.50656   0.52486   0.00000  Uiso   1.00
C151   C     0.53761   0.21239   0.33947   0.00000  Uiso   1.00
C152   C     0.02825   0.76043   0.73609   0.00000  Uiso   1.00
C153   C     0.06658   0.81629   0.65373   0.00000  Uiso   1.00
C154   C     0.14621   0.85876   0.63539   0.00000  Uiso   1.00
C155   C     0.16959   0.90662   0.55650   0.00000  Uiso   1.00
C156   C     0.30285   0.34867   0.35956   0.00000  Uiso   1.00
C157   C     0.30086   0.27822   0.37416   0.00000  Uiso   1.00
C158   C     0.24253   0.21303   0.32825   0.00000  Uiso   1.00
C159   C     0.31341   0.45617   0.45464   0.00000  Uiso   1.00
C160   C     0.32030   0.47609   0.54919   0.00000  Uiso   1.00
C161   C     0.27083   0.50139   0.58335   0.00000  Uiso   1.00
H162   H     0.88584   0.77394   0.58314   0.00000  Uiso   1.00
H163   H     0.99339   0.87323   0.47129   0.00000  Uiso   1.00
H164   H     0.81474   0.62607   0.54340   0.00000  Uiso   1.00
H165   H     0.83417   0.82391   0.71840   0.00000  Uiso   1.00
H166   H     0.13660   0.98102   0.37302   0.00000  Uiso   1.00
H167   H     0.09321   0.12652   0.19175   0.00000  Uiso   1.00
H168   H     0.13418   0.54371   0.56078   0.00000  Uiso   1.00
H169   H     0.40391   0.42308   0.44821   0.00000  Uiso   1.00
H170   H     0.18827   0.85475   0.68058   0.00000  Uiso   1.00
H171   H     0.34294   0.27425   0.41935   0.00000  Uiso   1.00
H172   H     0.36237   0.47209   0.59435   0.00000  Uiso   1.00
H173   H     0.29477   0.96602   0.54288   0.00000  Uiso   1.00
H174   H     0.25137   0.11151   0.36161   0.00000  Uiso   1.00
H175   H     0.62568   0.19537   0.39731   0.00000  Uiso   1.00
O176   O     0.28977   0.03850   0.38794   0.00000  Uiso   1.00
O177   O     0.12885   0.02142   0.25411   0.00000  Uiso   1.00
O178   O     0.51593   0.23543   0.40494   0.00000  Uiso   1.00
N179   N     0.15768   0.96401   0.42686   0.00000  Uiso   1.00
N180   N     0.13880   0.14341   0.23568   0.00000  Uiso   1.00
N181   N     0.17709   0.53343   0.58071   0.00000  Uiso   1.00
N182   N     0.24278   0.95593   0.51826   0.00000  Uiso   1.00
N183   N     0.22391   0.13534   0.32708   0.00000  Uiso   1.00
N184   N     0.26220   0.52536   0.67211   0.00000  Uiso   1.00
C185   C     0.59484   0.10326   0.96193   0.00000  Uiso   1.00
C186   C     0.67889   0.15479   0.92868   0.00000  Uiso   1.00
C187   C     0.70215   0.20259   0.84980   0.00000  Uiso   1.00
C188   C     0.78179   0.24512   0.83134   0.00000  Uiso   1.00
C189   C     0.90403   0.32587   0.77080   0.00000  Uiso   1.00
C190   C     0.58182   0.02049   0.96784   0.00000  Uiso   1.00
C191   C     0.52347   0.95539   0.92190   0.00000  Uiso   1.00
C192   C     0.85473   0.55153   0.60309   0.00000  Uiso   1.00
C193   C     0.82624   0.42379   0.60341   0.00000  Uiso   1.00
C194   C     0.59238   0.12799   0.06292   0.00000  Uiso   1.00
C195   C     0.54289   0.15326   0.09694   0.00000  Uiso   1.00
C196   C     0.88304   0.83989   0.85819   0.00000  Uiso   1.00
C197   C     0.20428   0.54572   0.67280   0.00000  Uiso   1.00
C198   C     0.69492   0.09377   0.06942   0.00000  Uiso   1.00
C199   C     0.73325   0.14962   0.98706   0.00000  Uiso   1.00
C200   C     0.81288   0.19209   0.96872   0.00000  Uiso   1.00
C201   C     0.83625   0.23995   0.88983   0.00000  Uiso   1.00
C202   C     0.96952   0.68200   0.69289   0.00000  Uiso   1.00
C203   C     0.96753   0.61155   0.70749   0.00000  Uiso   1.00
C204   C     0.90919   0.54636   0.66158   0.00000  Uiso   1.00
C205   C     0.98008   0.78950   0.78798   0.00000  Uiso   1.00
C206   C     0.98696   0.80942   0.88253   0.00000  Uiso   1.00
C207   C     0.93750   0.83472   0.91668   0.00000  Uiso   1.00
H208   H     0.55251   0.10727   0.91648   0.00000  Uiso   1.00
H209   H     0.66006   0.20656   0.80463   0.00000  Uiso   1.00
H210   H     0.48140   0.95940   0.87673   0.00000  Uiso   1.00
H211   H     0.50083   0.15724   0.05174   0.00000  Uiso   1.00
H212   H     0.80327   0.31435   0.70635   0.00000  Uiso   1.00
H213   H     0.75988   0.45985   0.52508   0.00000  Uiso   1.00
H214   H     0.80085   0.87704   0.89412   0.00000  Uiso   1.00
H215   H     0.07058   0.75641   0.78154   0.00000  Uiso   1.00
H216   H     0.85493   0.18808   0.01391   0.00000  Uiso   1.00
H217   H     0.00961   0.60758   0.75268   0.00000  Uiso   1.00
H218   H     0.02904   0.80543   0.92769   0.00000  Uiso   1.00
H219   H     0.96143   0.29935   0.87621   0.00000  Uiso   1.00
H220   H     0.91804   0.44485   0.69494   0.00000  Uiso   1.00
H221   H     0.29235   0.52871   0.73064   0.00000  Uiso   1.00
O222   O     0.95643   0.37183   0.72127   0.00000  Uiso   1.00
O223   O     0.79551   0.35475   0.58745   0.00000  Uiso   1.00
O224   O     0.18260   0.56876   0.73828   0.00000  Uiso   1.00
N225   N     0.82434   0.29734   0.76020   0.00000  Uiso   1.00
N226   N     0.80547   0.47675   0.56902   0.00000  Uiso   1.00
N227   N     0.84376   0.86676   0.91404   0.00000  Uiso   1.00
N228   N     0.90945   0.28927   0.85160   0.00000  Uiso   1.00
N229   N     0.89058   0.46868   0.66042   0.00000  Uiso   1.00
N230   N     0.92887   0.85869   0.00544   0.00000  Uiso   1.00
C231   C     0.26150   0.43660   0.29526   0.00000  Uiso   1.00
C232   C     0.34555   0.48812   0.26201   0.00000  Uiso   1.00
C233   C     0.36881   0.53593   0.18313   0.00000  Uiso   1.00
C234   C     0.44846   0.57845   0.16467   0.00000  Uiso   1.00
C235   C     0.57070   0.65921   0.10413   0.00000  Uiso   1.00
C236   C     0.24849   0.35383   0.30118   0.00000  Uiso   1.00
C237   C     0.19013   0.28872   0.25524   0.00000  Uiso   1.00
C238   C     0.52140   0.88487   0.93643   0.00000  Uiso   1.00
C239   C     0.49291   0.75712   0.93675   0.00000  Uiso   1.00
C240   C     0.25905   0.46133   0.39626   0.00000  Uiso   1.00
C241   C     0.20956   0.48659   0.43027   0.00000  Uiso   1.00
C242   C     0.54971   0.17322   0.19152   0.00000  Uiso   1.00
C243   C     0.87095   0.87906   0.00614   0.00000  Uiso   1.00
C244   C     0.36159   0.42710   0.40275   0.00000  Uiso   1.00
C245   C     0.39991   0.48296   0.32040   0.00000  Uiso   1.00
C246   C     0.47955   0.52542   0.30205   0.00000  Uiso   1.00
C247   C     0.50292   0.57329   0.22316   0.00000  Uiso   1.00
C248   C     0.63618   0.01533   0.02622   0.00000  Uiso   1.00
C249   C     0.63420   0.94489   0.04083   0.00000  Uiso   1.00
C250   C     0.57586   0.87970   0.99491   0.00000  Uiso   1.00
C251   C     0.64675   0.12284   0.12131   0.00000  Uiso   1.00
C252   C     0.65363   0.14276   0.21586   0.00000  Uiso   1.00
C253   C     0.60417   0.16806   0.25001   0.00000  Uiso   1.00
H254   H     0.21918   0.44061   0.24981   0.00000  Uiso   1.00
H255   H     0.32673   0.53990   0.13796   0.00000  Uiso   1.00
H256   H     0.14807   0.29273   0.21007   0.00000  Uiso   1.00
H257   H     0.16750   0.49058   0.38507   0.00000  Uiso   1.00
H258   H     0.46993   0.64769   0.03969   0.00000  Uiso   1.00
H259   H     0.42655   0.79319   0.85841   0.00000  Uiso   1.00
H260   H     0.46751   0.21037   0.22745   0.00000  Uiso   1.00
H261   H     0.73724   0.08975   0.11487   0.00000  Uiso   1.00
H262   H     0.52160   0.52142   0.34725   0.00000  Uiso   1.00
H263   H     0.67627   0.94092   0.08601   0.00000  Uiso   1.00
H264   H     0.69571   0.13876   0.26102   0.00000  Uiso   1.00
H265   H     0.62810   0.63268   0.20955   0.00000  Uiso   1.00
H266   H     0.58471   0.77818   0.02828   0.00000  Uiso   1.00
H267   H     0.95901   0.86204   0.06398   0.00000  Uiso   1.00
O268   O     0.62310   0.70517   0.05460   0.00000  Uiso   1.00
O269   O     0.46218   0.68808   0.92078   0.00000  Uiso   1.00
O270   O     0.84927   0.90210   0.07161   0.00000  Uiso   1.00
N271   N     0.49101   0.63067   0.09353   0.00000  Uiso   1.00
N272   N     0.47214   0.81008   0.90235   0.00000  Uiso   1.00
N273   N     0.51042   0.20010   0.24737   0.00000  Uiso   1.00
N274   N     0.57612   0.62260   0.18493   0.00000  Uiso   1.00
N275   N     0.55724   0.80201   0.99375   0.00000  Uiso   1.00
N276   N     0.59553   0.19203   0.33878   0.00000  Uiso   1.00
C277   C     0.23007   0.15824   0.62860   0.00000  Uiso   1.00
C278   C     0.17855   0.19077   0.59534   0.00000  Uiso   1.00
C279   C     0.13074   0.16622   0.51646   0.00000  Uiso   1.00
C280   C     0.08822   0.20334   0.49801   0.00000  Uiso   1.00
C281   C     0.00746   0.24482   0.43747   0.00000  Uiso   1.00
C282   C     0.31284   0.22800   0.63451   0.00000  Uiso   1.00
C283   C     0.37794   0.23474   0.58857   0.00000  Uiso   1.00
C284   C     0.78180   0.96987   0.26976   0.00000  Uiso   1.00
C285   C     0.90955   0.06912   0.27008   0.00000  Uiso   1.00
C286   C     0.20534   0.13106   0.72959   0.00000  Uiso   1.00
C287   C     0.18007   0.05630   0.76361   0.00000  Uiso   1.00
C288   C     0.49344   0.70982   0.52486   0.00000  Uiso   1.00
C289   C     0.78761   0.32522   0.33947   0.00000  Uiso   1.00
C290   C     0.23957   0.26782   0.73609   0.00000  Uiso   1.00
C291   C     0.18371   0.25029   0.65373   0.00000  Uiso   1.00
C292   C     0.14124   0.28746   0.63539   0.00000  Uiso   1.00
C293   C     0.09338   0.26297   0.55650   0.00000  Uiso   1.00
C294   C     0.65133   0.95418   0.35956   0.00000  Uiso   1.00
C295   C     0.72178   0.02265   0.37416   0.00000  Uiso   1.00
C296   C     0.78697   0.02950   0.32825   0.00000  Uiso   1.00
C297   C     0.54383   0.85724   0.45464   0.00000  Uiso   1.00
C298   C     0.52391   0.84421   0.54919   0.00000  Uiso   1.00
C299   C     0.49861   0.76944   0.58335   0.00000  Uiso   1.00
H300   H     0.22606   0.11191   0.58314   0.00000  Uiso   1.00
H301   H     0.12677   0.12016   0.47129   0.00000  Uiso   1.00
H302   H     0.37393   0.18867   0.54340   0.00000  Uiso   1.00
H303   H     0.17609   0.01026   0.71840   0.00000  Uiso   1.00
H304   H     0.01898   0.15558   0.37302   0.00000  Uiso   1.00
H305   H     0.87348   0.96669   0.19175   0.00000  Uiso   1.00
H306   H     0.45629   0.59047   0.56078   0.00000  Uiso   1.00
H307   H     0.57692   0.98083   0.44821   0.00000  Uiso   1.00
H308   H     0.14525   0.33351   0.68058   0.00000  Uiso   1.00
H309   H     0.72575   0.06869   0.41935   0.00000  Uiso   1.00
H310   H     0.52791   0.89028   0.59435   0.00000  Uiso   1.00
H311   H     0.03398   0.32875   0.54288   0.00000  Uiso   1.00
H312   H     0.88849   0.13986   0.36161   0.00000  Uiso   1.00
H313   H     0.80463   0.43031   0.39731   0.00000  Uiso   1.00
O314   O     0.96150   0.25127   0.38794   0.00000  Uiso   1.00
O315   O     0.97858   0.10743   0.25411   0.00000  Uiso   1.00
O316   O     0.76457   0.28050   0.40494   0.00000  Uiso   1.00
N317   N     0.03599   0.19367   0.42686   0.00000  Uiso   1.00
N318   N     0.85659   0.99539   0.23568   0.00000  Uiso   1.00
N319   N     0.46657   0.64366   0.58071   0.00000  Uiso   1.00
N320   N     0.04407   0.28685   0.51826   0.00000  Uiso   1.00
N321   N     0.86466   0.08857   0.32708   0.00000  Uiso   1.00
N322   N     0.47464   0.73684   0.67211   0.00000  Uiso   1.00
C323   C     0.89674   0.49157   0.96193   0.00000  Uiso   1.00
C324   C     0.84521   0.52410   0.92868   0.00000  Uiso   1.00
C325   C     0.79741   0.49955   0.84980   0.00000  Uiso   1.00
C326   C     0.75488   0.53668   0.83134   0.00000  Uiso   1.00
C327   C     0.67413   0.57815   0.77080   0.00000  Uiso   1.00
C328   C     0.97951   0.56133   0.96784   0.00000  Uiso   1.00
C329   C     0.04461   0.56808   0.92190   0.00000  Uiso   1.00
C330   C     0.44847   0.30320   0.60309   0.00000  Uiso   1.00
C331   C     0.57621   0.40246   0.60341   0.00000  Uiso   1.00
C332   C     0.87201   0.46439   0.06292   0.00000  Uiso   1.00
C333   C     0.84674   0.38963   0.09694   0.00000  Uiso   1.00
C334   C     0.16011   0.04315   0.85819   0.00000  Uiso   1.00
C335   C     0.45428   0.65856   0.67280   0.00000  Uiso   1.00
C336   C     0.90623   0.60115   0.06942   0.00000  Uiso   1.00
C337   C     0.85038   0.58362   0.98706   0.00000  Uiso   1.00
C338   C     0.80791   0.62079   0.96872   0.00000  Uiso   1.00
C339   C     0.76005   0.59630   0.88983   0.00000  Uiso   1.00
C340   C     0.31800   0.28752   0.69289   0.00000  Uiso   1.00
C341   C     0.38845   0.35598   0.70749   0.00000  Uiso   1.00
C342   C     0.45364   0.36283   0.66158   0.00000  Uiso   1.00
C343   C     0.21050   0.19058   0.78798   0.00000  Uiso   1.00
C344   C     0.19058   0.17754   0.88253   0.00000  Uiso   1.00
C345   C     0.16528   0.10278   0.91668   0.00000  Uiso   1.00
H346   H     0.89273   0.44524   0.91648   0.00000  Uiso   1.00
H347   H     0.79344   0.45349   0.80463   0.00000  Uiso   1.00
H348   H     0.04060   0.52200   0.87673   0.00000  Uiso   1.00
H349   H     0.84276   0.34359   0.05174   0.00000  Uiso   1.00
H350   H     0.68565   0.48891   0.70635   0.00000  Uiso   1.00
H351   H     0.54015   0.30002   0.52508   0.00000  Uiso   1.00
H352   H     0.12296   0.92381   0.89412   0.00000  Uiso   1.00
H353   H     0.24359   0.31416   0.78154   0.00000  Uiso   1.00
H354   H     0.81192   0.66685   0.01391   0.00000  Uiso   1.00
H355   H     0.39242   0.40202   0.75268   0.00000  Uiso   1.00
H356   H     0.19457   0.22361   0.92769   0.00000  Uiso   1.00
H357   H     0.70065   0.66208   0.87621   0.00000  Uiso   1.00
H358   H     0.55515   0.47319   0.69494   0.00000  Uiso   1.00
H359   H     0.47129   0.76364   0.73064   0.00000  Uiso   1.00
O360   O     0.62817   0.58460   0.72127   0.00000  Uiso   1.00
O361   O     0.64525   0.44076   0.58745   0.00000  Uiso   1.00
O362   O     0.43124   0.61384   0.73828   0.00000  Uiso   1.00
N363   N     0.70266   0.52700   0.76020   0.00000  Uiso   1.00
N364   N     0.52325   0.32872   0.56902   0.00000  Uiso   1.00
N365   N     0.13324   0.97699   0.91404   0.00000  Uiso   1.00
N366   N     0.71073   0.62018   0.85160   0.00000  Uiso   1.00
N367   N     0.53132   0.42190   0.66042   0.00000  Uiso   1.00
N368   N     0.14131   0.07017   0.00544   0.00000  Uiso   1.00
C369   C     0.56340   0.82491   0.29526   0.00000  Uiso   1.00
C370   C     0.51188   0.85743   0.26201   0.00000  Uiso   1.00
C371   C     0.46407   0.83289   0.18313   0.00000  Uiso   1.00
C372   C     0.42155   0.87001   0.16467   0.00000  Uiso   1.00
C373   C     0.34079   0.91149   0.10413   0.00000  Uiso   1.00
C374   C     0.64617   0.89466   0.30118   0.00000  Uiso   1.00
C375   C     0.71128   0.90141   0.25524   0.00000  Uiso   1.00
C376   C     0.11513   0.63654   0.93643   0.00000  Uiso   1.00
C377   C     0.24288   0.73579   0.93675   0.00000  Uiso   1.00
C378   C     0.53867   0.79772   0.39626   0.00000  Uiso   1.00
C379   C     0.51341   0.72297   0.43027   0.00000  Uiso   1.00
C380   C     0.82678   0.37648   0.19152   0.00000  Uiso   1.00
C381   C     0.12094   0.99189   0.00614   0.00000  Uiso   1.00
C382   C     0.57290   0.93449   0.40275   0.00000  Uiso   1.00
C383   C     0.51704   0.91696   0.32040   0.00000  Uiso   1.00
C384   C     0.47458   0.95412   0.30205   0.00000  Uiso   1.00
C385   C     0.42671   0.92963   0.22316   0.00000  Uiso   1.00
C386   C     0.98467   0.62085   0.02622   0.00000  Uiso   1.00
C387   C     0.05511   0.68931   0.04083   0.00000  Uiso   1.00
C388   C     0.12030   0.69616   0.99491   0.00000  Uiso   1.00
C389   C     0.87716   0.52391   0.12131   0.00000  Uiso   1.00
C390   C     0.85724   0.51087   0.21586   0.00000  Uiso   1.00
C391   C     0.83194   0.43611   0.25001   0.00000  Uiso   1.00
H392   H     0.55939   0.77857   0.24981   0.00000  Uiso   1.00
H393   H     0.46010   0.78683   0.13796   0.00000  Uiso   1.00
H394   H     0.70727   0.85534   0.21007   0.00000  Uiso   1.00
H395   H     0.50942   0.67692   0.38507   0.00000  Uiso   1.00
H396   H     0.35231   0.82225   0.03969   0.00000  Uiso   1.00
H397   H     0.20681   0.63336   0.85841   0.00000  Uiso   1.00
H398   H     0.78963   0.25714   0.22745   0.00000  Uiso   1.00
H399   H     0.91025   0.64750   0.11487   0.00000  Uiso   1.00
H400   H     0.47858   0.00018   0.34725   0.00000  Uiso   1.00
H401   H     0.05908   0.73536   0.08601   0.00000  Uiso   1.00
H402   H     0.86124   0.55695   0.26102   0.00000  Uiso   1.00
H403   H     0.36732   0.99542   0.20955   0.00000  Uiso   1.00
H404   H     0.22182   0.80653   0.02828   0.00000  Uiso   1.00
H405   H     0.13796   0.09697   0.06398   0.00000  Uiso   1.00
O406   O     0.29483   0.91793   0.05460   0.00000  Uiso   1.00
O407   O     0.31192   0.77409   0.92078   0.00000  Uiso   1.00
O408   O     0.09790   0.94717   0.07161   0.00000  Uiso   1.00
N409   N     0.36933   0.86034   0.09353   0.00000  Uiso   1.00
N410   N     0.18992   0.66205   0.90235   0.00000  Uiso   1.00
N411   N     0.79990   0.31033   0.24737   0.00000  Uiso   1.00
N412   N     0.37740   0.95352   0.18493   0.00000  Uiso   1.00
N413   N     0.19799   0.75523   0.99375   0.00000  Uiso   1.00
N414   N     0.80797   0.40351   0.33878   0.00000  Uiso   1.00
