data_job_06460
_audit_creation_date              2018-12-19
_audit_creation_method            'Materials Studio'
_symmetry_space_group_name_H-M    'P1'
_symmetry_Int_Tables_number       1
_symmetry_cell_setting            triclinic
loop_
_symmetry_equiv_pos_as_xyz
  x,y,z
_cell_length_a                    19.7714
_cell_length_b                    20.2648
_cell_length_c                    21.9321
_cell_angle_alpha                 110.1182
_cell_angle_beta                  114.8801
_cell_angle_gamma                 61.4023
loop_
_atom_site_label
_atom_site_type_symbol
_atom_site_fract_x
_atom_site_fract_y
_atom_site_fract_z
_atom_site_U_iso_or_equiv
_atom_site_adp_type
_atom_site_occupancy
C1     C     0.28867   0.61845   0.76542   0.00000  Uiso   1.00
C2     C     0.33790   0.61914   0.84083   0.00000  Uiso   1.00
C3     C     0.31204   0.67138   0.89510   0.00000  Uiso   1.00
C4     C     0.36610   0.66228   0.96030   0.00000  Uiso   1.00
C5     C     0.43082   0.67239   0.07579   0.00000  Uiso   1.00
C6     C     0.33989   0.62192   0.73144   0.00000  Uiso   1.00
C7     C     0.31570   0.67650   0.69373   0.00000  Uiso   1.00
C8     C     0.37143   0.66975   0.66684   0.00000  Uiso   1.00
C9     C     0.43922   0.68415   0.61246   0.00000  Uiso   1.00
C10    C     0.28552   0.53955   0.73720   0.00000  Uiso   1.00
C11    C     0.21562   0.52487   0.70432   0.00000  Uiso   1.00
C12    C     0.22558   0.44876   0.68226   0.00000  Uiso   1.00
C13    C     0.20895   0.33526   0.63683   0.00000  Uiso   1.00
C14    C     0.43064   0.50939   0.78470   0.00000  Uiso   1.00
C15    C     0.41501   0.55990   0.85130   0.00000  Uiso   1.00
C16    C     0.46912   0.55072   0.91643   0.00000  Uiso   1.00
C17    C     0.44335   0.60294   0.97079   0.00000  Uiso   1.00
C18    C     0.41700   0.56269   0.74191   0.00000  Uiso   1.00
C19    C     0.47278   0.55585   0.71506   0.00000  Uiso   1.00
C20    C     0.44869   0.61041   0.67732   0.00000  Uiso   1.00
C21    C     0.36263   0.48032   0.74767   0.00000  Uiso   1.00
C22    C     0.37270   0.40421   0.72565   0.00000  Uiso   1.00
C23    C     0.30283   0.38942   0.69275   0.00000  Uiso   1.00
H24    H     0.22863   0.66456   0.75727   0.00000  Uiso   1.00
H25    H     0.25236   0.71721   0.88697   0.00000  Uiso   1.00
H26    H     0.25602   0.72233   0.68563   0.00000  Uiso   1.00
H27    H     0.15595   0.57072   0.69622   0.00000  Uiso   1.00
H28    H     0.31269   0.74948   0.03540   0.00000  Uiso   1.00
H29    H     0.32039   0.76026   0.61084   0.00000  Uiso   1.00
H30    H     0.10938   0.44056   0.63317   0.00000  Uiso   1.00
H31    H     0.49068   0.46328   0.79285   0.00000  Uiso   1.00
H32    H     0.52879   0.50488   0.92451   0.00000  Uiso   1.00
H33    H     0.53245   0.51000   0.72317   0.00000  Uiso   1.00
H34    H     0.43239   0.35839   0.73376   0.00000  Uiso   1.00
H35    H     0.53705   0.57715   0.06587   0.00000  Uiso   1.00
H36    H     0.54475   0.58793   0.64130   0.00000  Uiso   1.00
H37    H     0.33375   0.26822   0.66364   0.00000  Uiso   1.00
O38    O     0.44522   0.69433   0.13660   0.00000  Uiso   1.00
O39    O     0.45531   0.70846   0.57958   0.00000  Uiso   1.00
O40    O     0.17848   0.28902   0.60889   0.00000  Uiso   1.00
N41    N     0.36025   0.70320   0.02450   0.00000  Uiso   1.00
N42    N     0.36746   0.71329   0.62757   0.00000  Uiso   1.00
N43    N     0.17019   0.41439   0.64843   0.00000  Uiso   1.00
N44    N     0.48098   0.61047   0.04089   0.00000  Uiso   1.00
N45    N     0.48819   0.62056   0.64396   0.00000  Uiso   1.00
N46    N     0.29092   0.32166   0.66483   0.00000  Uiso   1.00
C47    C     0.83788   0.62314   0.65938   0.00000  Uiso   1.00
C48    C     0.87595   0.65966   0.63972   0.00000  Uiso   1.00
C49    C     0.88416   0.72867   0.67243   0.00000  Uiso   1.00
C50    C     0.92064   0.75224   0.64664   0.00000  Uiso   1.00
C51    C     0.97556   0.81563   0.62468   0.00000  Uiso   1.00
C52    C     0.77005   0.61058   0.59554   0.00000  Uiso   1.00
C53    C     0.68922   0.63832   0.59112   0.00000  Uiso   1.00
C54    C     0.63657   0.62056   0.52815   0.00000  Uiso   1.00
C55    C     0.52709   0.60771   0.43762   0.00000  Uiso   1.00
C56    C     0.90205   0.54378   0.67161   0.00000  Uiso   1.00
C57    C     0.93221   0.51534   0.73114   0.00000  Uiso   1.00
C58    C     0.99069   0.44133   0.73221   0.00000  Uiso   1.00
C59    C     0.08616   0.32478   0.75979   0.00000  Uiso   1.00
C60    C     0.88809   0.54228   0.55540   0.00000  Uiso   1.00
C61    C     0.90321   0.61574   0.58324   0.00000  Uiso   1.00
C62    C     0.93970   0.63920   0.55739   0.00000  Uiso   1.00
C63    C     0.94797   0.70824   0.59006   0.00000  Uiso   1.00
C64    C     0.79731   0.56666   0.53907   0.00000  Uiso   1.00
C65    C     0.74477   0.54885   0.47609   0.00000  Uiso   1.00
C66    C     0.66389   0.57656   0.47157   0.00000  Uiso   1.00
C67    C     0.92932   0.49986   0.61514   0.00000  Uiso   1.00
C68    C     0.98776   0.42588   0.61611   0.00000  Uiso   1.00
C69    C     0.01800   0.39733   0.67563   0.00000  Uiso   1.00
H70    H     0.81665   0.65734   0.70334   0.00000  Uiso   1.00
H71    H     0.86304   0.76265   0.71613   0.00000  Uiso   1.00
H72    H     0.66814   0.67230   0.63484   0.00000  Uiso   1.00
H73    H     0.91109   0.54935   0.77484   0.00000  Uiso   1.00
H74    H     0.92647   0.86004   0.70539   0.00000  Uiso   1.00
H75    H     0.51552   0.66952   0.53398   0.00000  Uiso   1.00
H76    H     0.02783   0.41025   0.82920   0.00000  Uiso   1.00
H77    H     0.90931   0.50809   0.51143   0.00000  Uiso   1.00
H78    H     0.96079   0.60520   0.51369   0.00000  Uiso   1.00
H79    H     0.76589   0.51486   0.43239   0.00000  Uiso   1.00
H80    H     0.00884   0.39191   0.57239   0.00000  Uiso   1.00
H81    H     0.00581   0.73226   0.54107   0.00000  Uiso   1.00
H82    H     0.59486   0.54173   0.36967   0.00000  Uiso   1.00
H83    H     0.10717   0.28247   0.66489   0.00000  Uiso   1.00
O84    O     0.99831   0.86274   0.62816   0.00000  Uiso   1.00
O85    O     0.45916   0.61277   0.40330   0.00000  Uiso   1.00
O86    O     0.13130   0.27262   0.79061   0.00000  Uiso   1.00
N87    N     0.93809   0.81663   0.66641   0.00000  Uiso   1.00
N88    N     0.55388   0.63852   0.50616   0.00000  Uiso   1.00
N89    N     0.03283   0.39611   0.78215   0.00000  Uiso   1.00
N90    N     0.98078   0.74787   0.57800   0.00000  Uiso   1.00
N91    N     0.59657   0.56976   0.41774   0.00000  Uiso   1.00
N92    N     0.07552   0.32735   0.69374   0.00000  Uiso   1.00
C93    C     0.16875   0.65293   0.11941   0.00000  Uiso   1.00
C94    C     0.07708   0.67668   0.09285   0.00000  Uiso   1.00
C95    C     0.01976   0.75013   0.08505   0.00000  Uiso   1.00
C96    C     0.93888   0.76010   0.05998   0.00000  Uiso   1.00
C97    C     0.79998   0.80631   0.02130   0.00000  Uiso   1.00
C98    C     0.19919   0.61493   0.18029   0.00000  Uiso   1.00
C99    C     0.24456   0.63644   0.24600   0.00000  Uiso   1.00
C100   C     0.26648   0.59442   0.29453   0.00000  Uiso   1.00
C101   C     0.31722   0.54473   0.39159   0.00000  Uiso   1.00
C102   C     0.20139   0.58983   0.06410   0.00000  Uiso   1.00
C103   C     0.24862   0.59022   0.03212   0.00000  Uiso   1.00
C104   C     0.27241   0.52705   0.98283   0.00000  Uiso   1.00
C105   C     0.32656   0.43838   0.89948   0.00000  Uiso   1.00
C106   C     0.12702   0.54004   0.08875   0.00000  Uiso   1.00
C107   C     0.05442   0.61537   0.07620   0.00000  Uiso   1.00
C108   C     0.97360   0.62523   0.05113   0.00000  Uiso   1.00
C109   C     0.91618   0.69867   0.04329   0.00000  Uiso   1.00
C110   C     0.17653   0.55361   0.16364   0.00000  Uiso   1.00
C111   C     0.19839   0.51155   0.21208   0.00000  Uiso   1.00
C112   C     0.24378   0.53300   0.27785   0.00000  Uiso   1.00
C113   C     0.17872   0.52851   0.04744   0.00000  Uiso   1.00
C114   C     0.20245   0.46533   0.99820   0.00000  Uiso   1.00
C115   C     0.24971   0.46563   0.96615   0.00000  Uiso   1.00
H116   H     0.18639   0.70067   0.13238   0.00000  Uiso   1.00
H117   H     0.03733   0.79756   0.09795   0.00000  Uiso   1.00
H118   H     0.26209   0.68389   0.25887   0.00000  Uiso   1.00
H119   H     0.26615   0.63768   0.04502   0.00000  Uiso   1.00
H120   H     0.86206   0.87796   0.05245   0.00000  Uiso   1.00
H121   H     0.33601   0.63826   0.39176   0.00000  Uiso   1.00
H122   H     0.34457   0.54081   0.94082   0.00000  Uiso   1.00
H123   H     0.10938   0.49230   0.07579   0.00000  Uiso   1.00
H124   H     0.95608   0.57777   0.03825   0.00000  Uiso   1.00
H125   H     0.18085   0.46410   0.19917   0.00000  Uiso   1.00
H126   H     0.18490   0.41789   0.98532   0.00000  Uiso   1.00
H127   H     0.79612   0.69956   0.00400   0.00000  Uiso   1.00
H128   H     0.27008   0.45986   0.34331   0.00000  Uiso   1.00
H129   H     0.27863   0.36242   0.89237   0.00000  Uiso   1.00
O130   O     0.72963   0.84874   0.00457   0.00000  Uiso   1.00
O131   O     0.35146   0.53426   0.44973   0.00000  Uiso   1.00
O132   O     0.36267   0.40641   0.85810   0.00000  Uiso   1.00
N133   N     0.86758   0.82424   0.04619   0.00000  Uiso   1.00
N134   N     0.31069   0.60014   0.36343   0.00000  Uiso   1.00
N135   N     0.31870   0.50903   0.94185   0.00000  Uiso   1.00
N136   N     0.83210   0.72825   0.02011   0.00000  Uiso   1.00
N137   N     0.27520   0.50415   0.33735   0.00000  Uiso   1.00
N138   N     0.28322   0.41304   0.91577   0.00000  Uiso   1.00
C139   C     0.71900   0.13231   0.18101   0.00000  Uiso   1.00
C140   C     0.62746   0.15670   0.14910   0.00000  Uiso   1.00
C141   C     0.56964   0.22867   0.16358   0.00000  Uiso   1.00
C142   C     0.48899   0.23956   0.12895   0.00000  Uiso   1.00
C143   C     0.35019   0.28641   0.08658   0.00000  Uiso   1.00
C144   C     0.75312   0.10267   0.12163   0.00000  Uiso   1.00
C145   C     0.80095   0.12921   0.11302   0.00000  Uiso   1.00
C146   C     0.82608   0.09460   0.05528   0.00000  Uiso   1.00
C147   C     0.88242   0.05753   0.97028   0.00000  Uiso   1.00
C148   C     0.74873   0.06311   0.21252   0.00000  Uiso   1.00
C149   C     0.79290   0.05638   0.28034   0.00000  Uiso   1.00
C150   C     0.81436   0.98846   0.29911   0.00000  Uiso   1.00
C151   C     0.86389   0.88998   0.35524   0.00000  Uiso   1.00
C152   C     0.67860   0.02365   0.09376   0.00000  Uiso   1.00
C153   C     0.60552   0.09768   0.10170   0.00000  Uiso   1.00
C154   C     0.52494   0.10845   0.06705   0.00000  Uiso   1.00
C155   C     0.46700   0.18043   0.08148   0.00000  Uiso   1.00
C156   C     0.73118   0.04365   0.07424   0.00000  Uiso   1.00
C157   C     0.75625   0.00899   0.01649   0.00000  Uiso   1.00
C158   C     0.80410   0.03547   0.00780   0.00000  Uiso   1.00
C159   C     0.72679   0.00409   0.16513   0.00000  Uiso   1.00
C160   C     0.74819   0.93617   0.18380   0.00000  Uiso   1.00
C161   C     0.79238   0.92933   0.25163   0.00000  Uiso   1.00
H162   H     0.73609   0.17826   0.21791   0.00000  Uiso   1.00
H163   H     0.58665   0.27434   0.20026   0.00000  Uiso   1.00
H164   H     0.81793   0.17488   0.14971   0.00000  Uiso   1.00
H165   H     0.80987   0.10207   0.31699   0.00000  Uiso   1.00
H166   H     0.41129   0.35483   0.15977   0.00000  Uiso   1.00
H167   H     0.89898   0.14510   0.05320   0.00000  Uiso   1.00
H168   H     0.88199   0.99156   0.40596   0.00000  Uiso   1.00
H169   H     0.66151   0.97770   0.05686   0.00000  Uiso   1.00
H170   H     0.50797   0.06277   0.03038   0.00000  Uiso   1.00
H171   H     0.73926   0.96332   0.97983   0.00000  Uiso   1.00
H172   H     0.73120   0.89050   0.14711   0.00000  Uiso   1.00
H173   H     0.34743   0.18312   0.02188   0.00000  Uiso   1.00
H174   H     0.83513   0.97339   0.91532   0.00000  Uiso   1.00
H175   H     0.81814   0.81985   0.26807   0.00000  Uiso   1.00
O176   O     0.27970   0.32856   0.07629   0.00000  Uiso   1.00
O177   O     0.91955   0.05340   0.93649   0.00000  Uiso   1.00
O178   O     0.89726   0.85196   0.39929   0.00000  Uiso   1.00
N179   N     0.41733   0.30274   0.13096   0.00000  Uiso   1.00
N180   N     0.87328   0.10666   0.03132   0.00000  Uiso   1.00
N181   N     0.85742   0.96311   0.36111   0.00000  Uiso   1.00
N182   N     0.38297   0.21034   0.05677   0.00000  Uiso   1.00
N183   N     0.83892   0.01427   0.95713   0.00000  Uiso   1.00
N184   N     0.82306   0.87071   0.28692   0.00000  Uiso   1.00
C185   C     0.69500   0.16569   0.56152   0.00000  Uiso   1.00
C186   C     0.75764   0.18273   0.55330   0.00000  Uiso   1.00
C187   C     0.74169   0.24521   0.52904   0.00000  Uiso   1.00
C188   C     0.80729   0.25054   0.52539   0.00000  Uiso   1.00
C189   C     0.89259   0.28541   0.50964   0.00000  Uiso   1.00
C190   C     0.72381   0.15868   0.63621   0.00000  Uiso   1.00
C191   C     0.67941   0.20094   0.68164   0.00000  Uiso   1.00
C192   C     0.71654   0.18601   0.74777   0.00000  Uiso   1.00
C193   C     0.74930   0.18352   0.86072   0.00000  Uiso   1.00
C194   C     0.70283   0.08601   0.52018   0.00000  Uiso   1.00
C195   C     0.64078   0.06714   0.46807   0.00000  Uiso   1.00
C196   C     0.66023   0.99102   0.43653   0.00000  Uiso   1.00
C197   C     0.66041   0.87568   0.36933   0.00000  Uiso   1.00
C198   C     0.83987   0.06404   0.59819   0.00000  Uiso   1.00
C199   C     0.83633   0.12752   0.57323   0.00000  Uiso   1.00
C200   C     0.90197   0.13275   0.56961   0.00000  Uiso   1.00
C201   C     0.88612   0.19522   0.54534   0.00000  Uiso   1.00
C202   C     0.80250   0.10347   0.65613   0.00000  Uiso   1.00
C203   C     0.83970   0.08848   0.72221   0.00000  Uiso   1.00
C204   C     0.79537   0.13070   0.76773   0.00000  Uiso   1.00
C205   C     0.78152   0.03079   0.54010   0.00000  Uiso   1.00
C206   C     0.80107   0.95468   0.50864   0.00000  Uiso   1.00
C207   C     0.73906   0.93571   0.45649   0.00000  Uiso   1.00
H208   H     0.63374   0.20868   0.54601   0.00000  Uiso   1.00
H209   H     0.68078   0.28793   0.51363   0.00000  Uiso   1.00
H210   H     0.61852   0.24366   0.66620   0.00000  Uiso   1.00
H211   H     0.57989   0.10989   0.45267   0.00000  Uiso   1.00
H212   H     0.76765   0.35146   0.48654   0.00000  Uiso   1.00
H213   H     0.63634   0.25809   0.80824   0.00000  Uiso   1.00
H214   H     0.55489   0.97601   0.35796   0.00000  Uiso   1.00
H215   H     0.90114   0.02105   0.61370   0.00000  Uiso   1.00
H216   H     0.96286   0.09001   0.58503   0.00000  Uiso   1.00
H217   H     0.90059   0.04574   0.73761   0.00000  Uiso   1.00
H218   H     0.86197   0.91197   0.52407   0.00000  Uiso   1.00
H219   H     0.99659   0.19083   0.54449   0.00000  Uiso   1.00
H220   H     0.86529   0.09746   0.86620   0.00000  Uiso   1.00
H221   H     0.78384   0.81537   0.41591   0.00000  Uiso   1.00
O222   O     0.91790   0.31991   0.49546   0.00000  Uiso   1.00
O223   O     0.74563   0.19740   0.91751   0.00000  Uiso   1.00
O224   O     0.63877   0.82732   0.32675   0.00000  Uiso   1.00
N225   N     0.81306   0.30419   0.50410   0.00000  Uiso   1.00
N226   N     0.69030   0.21690   0.80488   0.00000  Uiso   1.00
N227   N     0.61415   0.95317   0.38391   0.00000  Uiso   1.00
N228   N     0.93625   0.21775   0.53528   0.00000  Uiso   1.00
N229   N     0.81350   0.13046   0.83606   0.00000  Uiso   1.00
N230   N     0.73734   0.86673   0.41509   0.00000  Uiso   1.00
C231   C     0.37184   0.10163   0.25856   0.00000  Uiso   1.00
C232   C     0.39148   0.10879   0.33507   0.00000  Uiso   1.00
C233   C     0.41989   0.16137   0.38604   0.00000  Uiso   1.00
C234   C     0.43419   0.15869   0.45295   0.00000  Uiso   1.00
C235   C     0.46673   0.17797   0.56941   0.00000  Uiso   1.00
C236   C     0.28393   0.10942   0.22635   0.00000  Uiso   1.00
C237   C     0.22192   0.16251   0.18592   0.00000  Uiso   1.00
C238   C     0.14569   0.16035   0.16131   0.00000  Uiso   1.00
C239   C     0.01127   0.18055   0.10896   0.00000  Uiso   1.00
C240   C     0.42286   0.01933   0.23357   0.00000  Uiso   1.00
C241   C     0.47765   0.99668   0.19919   0.00000  Uiso   1.00
C242   C     0.51836   0.91866   0.18064   0.00000  Uiso   1.00
C243   C     0.59966   0.79899   0.13949   0.00000  Uiso   1.00
C244   C     0.34670   0.00335   0.28675   0.00000  Uiso   1.00
C245   C     0.37783   0.05542   0.35037   0.00000  Uiso   1.00
C246   C     0.39209   0.05265   0.41723   0.00000  Uiso   1.00
C247   C     0.42052   0.10522   0.46829   0.00000  Uiso   1.00
C248   C     0.27028   0.05604   0.24166   0.00000  Uiso   1.00
C249   C     0.19412   0.05379   0.21710   0.00000  Uiso   1.00
C250   C     0.13201   0.10687   0.17665   0.00000  Uiso   1.00
C251   C     0.40921   0.96595   0.24888   0.00000  Uiso   1.00
C252   C     0.44985   0.88795   0.23038   0.00000  Uiso   1.00
C253   C     0.50469   0.86518   0.19598   0.00000  Uiso   1.00
H254   H     0.38246   0.14318   0.24664   0.00000  Uiso   1.00
H255   H     0.43044   0.20268   0.37417   0.00000  Uiso   1.00
H256   H     0.23251   0.20381   0.17407   0.00000  Uiso   1.00
H257   H     0.48819   0.03800   0.18735   0.00000  Uiso   1.00
H258   H     0.47759   0.24512   0.52231   0.00000  Uiso   1.00
H259   H     0.06024   0.24749   0.10038   0.00000  Uiso   1.00
H260   H     0.59941   0.89784   0.12837   0.00000  Uiso   1.00
H261   H     0.33607   0.96180   0.29866   0.00000  Uiso   1.00
H262   H     0.38152   0.01134   0.42906   0.00000  Uiso   1.00
H263   H     0.18358   0.01247   0.22896   0.00000  Uiso   1.00
H264   H     0.43927   0.84666   0.24223   0.00000  Uiso   1.00
H265   H     0.43788   0.08982   0.56686   0.00000  Uiso   1.00
H266   H     0.02053   0.09219   0.14493   0.00000  Uiso   1.00
H267   H     0.55970   0.74255   0.17292   0.00000  Uiso   1.00
O268   O     0.48844   0.20335   0.62942   0.00000  Uiso   1.00
O269   O     0.94090   0.20645   0.07585   0.00000  Uiso   1.00
O270   O     0.64827   0.74773   0.11258   0.00000  Uiso   1.00
N271   N     0.46203   0.20176   0.51490   0.00000  Uiso   1.00
N272   N     0.07183   0.20399   0.12043   0.00000  Uiso   1.00
N273   N     0.57588   0.87710   0.14658   0.00000  Uiso   1.00
N274   N     0.44066   0.11820   0.53888   0.00000  Uiso   1.00
N275   N     0.05046   0.12042   0.14440   0.00000  Uiso   1.00
N276   N     0.55452   0.79353   0.17055   0.00000  Uiso   1.00
C277   C     0.71133   0.38155   0.23458   0.00000  Uiso   1.00
C278   C     0.66210   0.38086   0.15917   0.00000  Uiso   1.00
C279   C     0.68796   0.32862   0.10490   0.00000  Uiso   1.00
C280   C     0.63390   0.33772   0.03970   0.00000  Uiso   1.00
C281   C     0.56918   0.32761   0.92421   0.00000  Uiso   1.00
C282   C     0.66011   0.37808   0.26856   0.00000  Uiso   1.00
C283   C     0.68430   0.32350   0.30627   0.00000  Uiso   1.00
C284   C     0.62857   0.33025   0.33316   0.00000  Uiso   1.00
C285   C     0.56078   0.31585   0.38754   0.00000  Uiso   1.00
C286   C     0.71448   0.46045   0.26280   0.00000  Uiso   1.00
C287   C     0.78438   0.47513   0.29568   0.00000  Uiso   1.00
C288   C     0.77442   0.55124   0.31774   0.00000  Uiso   1.00
C289   C     0.79105   0.66474   0.36317   0.00000  Uiso   1.00
C290   C     0.56936   0.49061   0.21530   0.00000  Uiso   1.00
C291   C     0.58499   0.44010   0.14870   0.00000  Uiso   1.00
C292   C     0.53088   0.44928   0.08357   0.00000  Uiso   1.00
C293   C     0.55665   0.39706   0.02921   0.00000  Uiso   1.00
C294   C     0.58300   0.43731   0.25809   0.00000  Uiso   1.00
C295   C     0.52722   0.44415   0.28494   0.00000  Uiso   1.00
C296   C     0.55131   0.38959   0.32268   0.00000  Uiso   1.00
C297   C     0.63737   0.51968   0.25233   0.00000  Uiso   1.00
C298   C     0.62730   0.59579   0.27435   0.00000  Uiso   1.00
C299   C     0.69717   0.61058   0.30725   0.00000  Uiso   1.00
H300   H     0.77137   0.33544   0.24273   0.00000  Uiso   1.00
H301   H     0.74764   0.28279   0.11303   0.00000  Uiso   1.00
H302   H     0.74398   0.27767   0.31437   0.00000  Uiso   1.00
H303   H     0.84405   0.42928   0.30378   0.00000  Uiso   1.00
H304   H     0.68731   0.25052   0.96460   0.00000  Uiso   1.00
H305   H     0.67961   0.23974   0.38916   0.00000  Uiso   1.00
H306   H     0.89062   0.55944   0.36683   0.00000  Uiso   1.00
H307   H     0.50932   0.53672   0.20715   0.00000  Uiso   1.00
H308   H     0.47121   0.49512   0.07549   0.00000  Uiso   1.00
H309   H     0.46755   0.49000   0.27683   0.00000  Uiso   1.00
H310   H     0.56761   0.64161   0.26624   0.00000  Uiso   1.00
H311   H     0.46295   0.42285   0.93413   0.00000  Uiso   1.00
H312   H     0.45525   0.41207   0.35870   0.00000  Uiso   1.00
H313   H     0.66625   0.73178   0.33636   0.00000  Uiso   1.00
O314   O     0.55478   0.30567   0.86340   0.00000  Uiso   1.00
O315   O     0.54469   0.29154   0.42042   0.00000  Uiso   1.00
O316   O     0.82152   0.71098   0.39111   0.00000  Uiso   1.00
N317   N     0.63975   0.29680   0.97550   0.00000  Uiso   1.00
N318   N     0.63254   0.28671   0.37243   0.00000  Uiso   1.00
N319   N     0.82981   0.58561   0.35157   0.00000  Uiso   1.00
N320   N     0.51902   0.38953   0.95911   0.00000  Uiso   1.00
N321   N     0.51181   0.37944   0.35604   0.00000  Uiso   1.00
N322   N     0.70908   0.67834   0.33517   0.00000  Uiso   1.00
C323   C     0.16212   0.37686   0.34062   0.00000  Uiso   1.00
C324   C     0.12405   0.34034   0.36028   0.00000  Uiso   1.00
C325   C     0.11584   0.27133   0.32757   0.00000  Uiso   1.00
C326   C     0.07936   0.24776   0.35336   0.00000  Uiso   1.00
C327   C     0.02444   0.18437   0.37532   0.00000  Uiso   1.00
C328   C     0.22995   0.38942   0.40446   0.00000  Uiso   1.00
C329   C     0.31078   0.36168   0.40888   0.00000  Uiso   1.00
C330   C     0.36343   0.37944   0.47185   0.00000  Uiso   1.00
C331   C     0.47291   0.39229   0.56238   0.00000  Uiso   1.00
C332   C     0.09795   0.45622   0.32839   0.00000  Uiso   1.00
C333   C     0.06779   0.48466   0.26886   0.00000  Uiso   1.00
C334   C     0.00931   0.55867   0.26779   0.00000  Uiso   1.00
C335   C     0.91384   0.67522   0.24021   0.00000  Uiso   1.00
C336   C     0.11191   0.45772   0.44460   0.00000  Uiso   1.00
C337   C     0.09679   0.38426   0.41676   0.00000  Uiso   1.00
C338   C     0.06030   0.36080   0.44261   0.00000  Uiso   1.00
C339   C     0.05203   0.29176   0.40994   0.00000  Uiso   1.00
C340   C     0.20269   0.43334   0.46093   0.00000  Uiso   1.00
C341   C     0.25523   0.45115   0.52391   0.00000  Uiso   1.00
C342   C     0.33611   0.42344   0.52843   0.00000  Uiso   1.00
C343   C     0.07068   0.50014   0.38486   0.00000  Uiso   1.00
C344   C     0.01224   0.57412   0.38389   0.00000  Uiso   1.00
C345   C     0.98200   0.60267   0.32437   0.00000  Uiso   1.00
H346   H     0.18335   0.34266   0.29666   0.00000  Uiso   1.00
H347   H     0.13696   0.23735   0.28387   0.00000  Uiso   1.00
H348   H     0.33186   0.32770   0.36516   0.00000  Uiso   1.00
H349   H     0.08891   0.45065   0.22516   0.00000  Uiso   1.00
H350   H     0.07353   0.13996   0.29461   0.00000  Uiso   1.00
H351   H     0.48448   0.33048   0.46602   0.00000  Uiso   1.00
H352   H     0.97217   0.58975   0.17080   0.00000  Uiso   1.00
H353   H     0.09069   0.49191   0.48857   0.00000  Uiso   1.00
H354   H     0.03921   0.39480   0.48631   0.00000  Uiso   1.00
H355   H     0.23411   0.48514   0.56761   0.00000  Uiso   1.00
H356   H     0.99116   0.60809   0.42761   0.00000  Uiso   1.00
H357   H     0.99419   0.26774   0.45893   0.00000  Uiso   1.00
H358   H     0.40514   0.45827   0.63033   0.00000  Uiso   1.00
H359   H     0.89283   0.71753   0.33511   0.00000  Uiso   1.00
O360   O     0.00169   0.13726   0.37184   0.00000  Uiso   1.00
O361   O     0.54084   0.38723   0.59670   0.00000  Uiso   1.00
O362   O     0.86870   0.72738   0.20939   0.00000  Uiso   1.00
N363   N     0.06191   0.18337   0.33359   0.00000  Uiso   1.00
N364   N     0.44612   0.36148   0.49384   0.00000  Uiso   1.00
N365   N     0.96717   0.60389   0.21785   0.00000  Uiso   1.00
N366   N     0.01922   0.25213   0.42200   0.00000  Uiso   1.00
N367   N     0.40343   0.43024   0.58226   0.00000  Uiso   1.00
N368   N     0.92448   0.67265   0.30626   0.00000  Uiso   1.00
C369   C     0.83125   0.34707   0.88059   0.00000  Uiso   1.00
C370   C     0.92292   0.32332   0.90715   0.00000  Uiso   1.00
C371   C     0.98024   0.24987   0.91495   0.00000  Uiso   1.00
C372   C     0.06112   0.23990   0.94002   0.00000  Uiso   1.00
C373   C     0.20002   0.19369   0.97870   0.00000  Uiso   1.00
C374   C     0.80081   0.38507   0.81971   0.00000  Uiso   1.00
C375   C     0.75544   0.36356   0.75400   0.00000  Uiso   1.00
C376   C     0.73352   0.40558   0.70547   0.00000  Uiso   1.00
C377   C     0.68278   0.45527   0.60841   0.00000  Uiso   1.00
C378   C     0.79861   0.41017   0.93590   0.00000  Uiso   1.00
C379   C     0.75138   0.40978   0.96788   0.00000  Uiso   1.00
C380   C     0.72759   0.47295   0.01717   0.00000  Uiso   1.00
C381   C     0.67344   0.56162   0.10052   0.00000  Uiso   1.00
C382   C     0.87298   0.45996   0.91125   0.00000  Uiso   1.00
C383   C     0.94558   0.38463   0.92380   0.00000  Uiso   1.00
C384   C     0.02640   0.37477   0.94887   0.00000  Uiso   1.00
C385   C     0.08382   0.30133   0.95671   0.00000  Uiso   1.00
C386   C     0.82347   0.44639   0.83636   0.00000  Uiso   1.00
C387   C     0.80161   0.48845   0.78792   0.00000  Uiso   1.00
C388   C     0.75622   0.46700   0.72215   0.00000  Uiso   1.00
C389   C     0.82128   0.47149   0.95256   0.00000  Uiso   1.00
C390   C     0.79755   0.53467   0.00180   0.00000  Uiso   1.00
C391   C     0.75029   0.53437   0.03385   0.00000  Uiso   1.00
H392   H     0.81361   0.29933   0.86762   0.00000  Uiso   1.00
H393   H     0.96267   0.20244   0.90205   0.00000  Uiso   1.00
H394   H     0.73791   0.31611   0.74113   0.00000  Uiso   1.00
H395   H     0.73385   0.36232   0.95498   0.00000  Uiso   1.00
H396   H     0.13794   0.12204   0.94755   0.00000  Uiso   1.00
H397   H     0.66399   0.36174   0.60824   0.00000  Uiso   1.00
H398   H     0.65543   0.45919   0.05918   0.00000  Uiso   1.00
H399   H     0.89062   0.50770   0.92421   0.00000  Uiso   1.00
H400   H     0.04392   0.42223   0.96175   0.00000  Uiso   1.00
H401   H     0.81915   0.53590   0.80083   0.00000  Uiso   1.00
H402   H     0.81510   0.58211   0.01468   0.00000  Uiso   1.00
H403   H     0.20388   0.30044   0.99600   0.00000  Uiso   1.00
H404   H     0.72992   0.54014   0.65669   0.00000  Uiso   1.00
H405   H     0.72137   0.63758   0.10763   0.00000  Uiso   1.00
O406   O     0.27037   0.15126   0.99543   0.00000  Uiso   1.00
O407   O     0.64854   0.46574   0.55027   0.00000  Uiso   1.00
O408   O     0.63733   0.59359   0.14190   0.00000  Uiso   1.00
N409   N     0.13242   0.17576   0.95381   0.00000  Uiso   1.00
N410   N     0.68931   0.39986   0.63657   0.00000  Uiso   1.00
N411   N     0.68130   0.49097   0.05815   0.00000  Uiso   1.00
N412   N     0.16790   0.27175   0.97989   0.00000  Uiso   1.00
N413   N     0.72480   0.49585   0.66265   0.00000  Uiso   1.00
N414   N     0.71678   0.58696   0.08423   0.00000  Uiso   1.00
C415   C     0.28100   0.86769   0.81899   0.00000  Uiso   1.00
C416   C     0.37254   0.84330   0.85090   0.00000  Uiso   1.00
C417   C     0.43036   0.77133   0.83642   0.00000  Uiso   1.00
C418   C     0.51101   0.76044   0.87105   0.00000  Uiso   1.00
C419   C     0.64981   0.71359   0.91342   0.00000  Uiso   1.00
C420   C     0.24688   0.89733   0.87837   0.00000  Uiso   1.00
C421   C     0.19905   0.87079   0.88698   0.00000  Uiso   1.00
C422   C     0.17392   0.90540   0.94472   0.00000  Uiso   1.00
C423   C     0.11758   0.94247   0.02972   0.00000  Uiso   1.00
C424   C     0.25127   0.93689   0.78748   0.00000  Uiso   1.00
C425   C     0.20710   0.94362   0.71966   0.00000  Uiso   1.00
C426   C     0.18564   0.01154   0.70089   0.00000  Uiso   1.00
C427   C     0.13611   0.11002   0.64476   0.00000  Uiso   1.00
C428   C     0.32140   0.97635   0.90624   0.00000  Uiso   1.00
C429   C     0.39448   0.90232   0.89830   0.00000  Uiso   1.00
C430   C     0.47506   0.89155   0.93295   0.00000  Uiso   1.00
C431   C     0.53300   0.81957   0.91852   0.00000  Uiso   1.00
C432   C     0.26882   0.95635   0.92576   0.00000  Uiso   1.00
C433   C     0.24375   0.99101   0.98351   0.00000  Uiso   1.00
C434   C     0.19590   0.96453   0.99220   0.00000  Uiso   1.00
C435   C     0.27321   0.99591   0.83487   0.00000  Uiso   1.00
C436   C     0.25181   0.06383   0.81620   0.00000  Uiso   1.00
C437   C     0.20762   0.07067   0.74837   0.00000  Uiso   1.00
H438   H     0.26391   0.82174   0.78209   0.00000  Uiso   1.00
H439   H     0.41335   0.72566   0.79974   0.00000  Uiso   1.00
H440   H     0.18207   0.82512   0.85029   0.00000  Uiso   1.00
H441   H     0.19013   0.89793   0.68301   0.00000  Uiso   1.00
H442   H     0.58871   0.64517   0.84023   0.00000  Uiso   1.00
H443   H     0.10102   0.85490   0.94680   0.00000  Uiso   1.00
H444   H     0.11801   0.00844   0.59404   0.00000  Uiso   1.00
H445   H     0.33849   0.02230   0.94314   0.00000  Uiso   1.00
H446   H     0.49203   0.93723   0.96962   0.00000  Uiso   1.00
H447   H     0.26074   0.03668   0.02017   0.00000  Uiso   1.00
H448   H     0.26880   0.10950   0.85289   0.00000  Uiso   1.00
H449   H     0.65257   0.81688   0.97812   0.00000  Uiso   1.00
H450   H     0.16487   0.02661   0.08468   0.00000  Uiso   1.00
H451   H     0.18186   0.18015   0.73193   0.00000  Uiso   1.00
O452   O     0.72030   0.67144   0.92371   0.00000  Uiso   1.00
O453   O     0.08045   0.94660   0.06351   0.00000  Uiso   1.00
O454   O     0.10274   0.14804   0.60071   0.00000  Uiso   1.00
N455   N     0.58267   0.69726   0.86904   0.00000  Uiso   1.00
N456   N     0.12672   0.89334   0.96868   0.00000  Uiso   1.00
N457   N     0.14258   0.03689   0.63889   0.00000  Uiso   1.00
N458   N     0.61703   0.78966   0.94323   0.00000  Uiso   1.00
N459   N     0.16108   0.98573   0.04287   0.00000  Uiso   1.00
N460   N     0.17694   0.12929   0.71308   0.00000  Uiso   1.00
C461   C     0.30500   0.83431   0.43848   0.00000  Uiso   1.00
C462   C     0.24236   0.81727   0.44670   0.00000  Uiso   1.00
C463   C     0.25831   0.75479   0.47096   0.00000  Uiso   1.00
C464   C     0.19271   0.74946   0.47461   0.00000  Uiso   1.00
C465   C     0.10741   0.71459   0.49036   0.00000  Uiso   1.00
C466   C     0.27619   0.84132   0.36379   0.00000  Uiso   1.00
C467   C     0.32059   0.79906   0.31836   0.00000  Uiso   1.00
C468   C     0.28346   0.81399   0.25223   0.00000  Uiso   1.00
C469   C     0.25070   0.81648   0.13928   0.00000  Uiso   1.00
C470   C     0.29717   0.91399   0.47982   0.00000  Uiso   1.00
C471   C     0.35922   0.93286   0.53193   0.00000  Uiso   1.00
C472   C     0.33977   0.00898   0.56347   0.00000  Uiso   1.00
C473   C     0.33959   0.12432   0.63067   0.00000  Uiso   1.00
C474   C     0.16013   0.93596   0.40181   0.00000  Uiso   1.00
C475   C     0.16367   0.87248   0.42677   0.00000  Uiso   1.00
C476   C     0.09803   0.86725   0.43039   0.00000  Uiso   1.00
C477   C     0.11388   0.80478   0.45466   0.00000  Uiso   1.00
C478   C     0.19750   0.89653   0.34387   0.00000  Uiso   1.00
C479   C     0.16030   0.91152   0.27779   0.00000  Uiso   1.00
C480   C     0.20463   0.86930   0.23227   0.00000  Uiso   1.00
C481   C     0.21848   0.96921   0.45990   0.00000  Uiso   1.00
C482   C     0.19893   0.04532   0.49136   0.00000  Uiso   1.00
C483   C     0.26094   0.06429   0.54351   0.00000  Uiso   1.00
H484   H     0.36626   0.79132   0.45399   0.00000  Uiso   1.00
H485   H     0.31922   0.71207   0.48637   0.00000  Uiso   1.00
H486   H     0.38148   0.75634   0.33380   0.00000  Uiso   1.00
H487   H     0.42011   0.89011   0.54733   0.00000  Uiso   1.00
H488   H     0.23235   0.64854   0.51346   0.00000  Uiso   1.00
H489   H     0.36366   0.74191   0.19176   0.00000  Uiso   1.00
H490   H     0.44511   0.02399   0.64204   0.00000  Uiso   1.00
H491   H     0.09886   0.97895   0.38630   0.00000  Uiso   1.00
H492   H     0.03714   0.90999   0.41497   0.00000  Uiso   1.00
H493   H     0.09941   0.95426   0.26239   0.00000  Uiso   1.00
H494   H     0.13803   0.08803   0.47593   0.00000  Uiso   1.00
H495   H     0.00341   0.80917   0.45551   0.00000  Uiso   1.00
H496   H     0.13471   0.90254   0.13380   0.00000  Uiso   1.00
H497   H     0.21616   0.18463   0.58409   0.00000  Uiso   1.00
O498   O     0.08210   0.68009   0.50454   0.00000  Uiso   1.00
O499   O     0.25437   0.80260   0.08249   0.00000  Uiso   1.00
O500   O     0.36123   0.17268   0.67325   0.00000  Uiso   1.00
N501   N     0.18694   0.69581   0.49590   0.00000  Uiso   1.00
N502   N     0.30970   0.78310   0.19512   0.00000  Uiso   1.00
N503   N     0.38585   0.04683   0.61609   0.00000  Uiso   1.00
N504   N     0.06375   0.78225   0.46472   0.00000  Uiso   1.00
N505   N     0.18650   0.86954   0.16394   0.00000  Uiso   1.00
N506   N     0.26266   0.13327   0.58491   0.00000  Uiso   1.00
C507   C     0.62816   0.89837   0.74144   0.00000  Uiso   1.00
C508   C     0.60852   0.89121   0.66493   0.00000  Uiso   1.00
C509   C     0.58011   0.83863   0.61396   0.00000  Uiso   1.00
C510   C     0.56581   0.84131   0.54705   0.00000  Uiso   1.00
C511   C     0.53327   0.82203   0.43059   0.00000  Uiso   1.00
C512   C     0.71607   0.89058   0.77365   0.00000  Uiso   1.00
C513   C     0.77808   0.83749   0.81408   0.00000  Uiso   1.00
C514   C     0.85431   0.83965   0.83869   0.00000  Uiso   1.00
C515   C     0.98873   0.81945   0.89104   0.00000  Uiso   1.00
C516   C     0.57714   0.98067   0.76643   0.00000  Uiso   1.00
C517   C     0.52235   0.00332   0.80081   0.00000  Uiso   1.00
C518   C     0.48164   0.08134   0.81936   0.00000  Uiso   1.00
C519   C     0.40034   0.20101   0.86051   0.00000  Uiso   1.00
C520   C     0.65330   0.99665   0.71325   0.00000  Uiso   1.00
C521   C     0.62217   0.94458   0.64963   0.00000  Uiso   1.00
C522   C     0.60791   0.94735   0.58277   0.00000  Uiso   1.00
C523   C     0.57948   0.89478   0.53171   0.00000  Uiso   1.00
C524   C     0.72972   0.94396   0.75834   0.00000  Uiso   1.00
C525   C     0.80588   0.94621   0.78290   0.00000  Uiso   1.00
C526   C     0.86799   0.89313   0.82335   0.00000  Uiso   1.00
C527   C     0.59079   0.03405   0.75112   0.00000  Uiso   1.00
C528   C     0.55015   0.11205   0.76962   0.00000  Uiso   1.00
C529   C     0.49531   0.13482   0.80402   0.00000  Uiso   1.00
H530   H     0.61754   0.85682   0.75336   0.00000  Uiso   1.00
H531   H     0.56956   0.79732   0.62583   0.00000  Uiso   1.00
H532   H     0.76749   0.79619   0.82593   0.00000  Uiso   1.00
H533   H     0.51181   0.96200   0.81265   0.00000  Uiso   1.00
H534   H     0.52241   0.75488   0.47769   0.00000  Uiso   1.00
H535   H     0.93976   0.75251   0.89962   0.00000  Uiso   1.00
H536   H     0.40059   0.10216   0.87163   0.00000  Uiso   1.00
H537   H     0.66393   0.03820   0.70134   0.00000  Uiso   1.00
H538   H     0.61848   0.98866   0.57094   0.00000  Uiso   1.00
H539   H     0.81642   0.98753   0.77104   0.00000  Uiso   1.00
H540   H     0.56073   0.15334   0.75777   0.00000  Uiso   1.00
H541   H     0.56212   0.91018   0.43314   0.00000  Uiso   1.00
H542   H     0.97947   0.90781   0.85507   0.00000  Uiso   1.00
H543   H     0.44030   0.25745   0.82708   0.00000  Uiso   1.00
O544   O     0.51156   0.79665   0.37058   0.00000  Uiso   1.00
O545   O     0.05910   0.79355   0.92415   0.00000  Uiso   1.00
O546   O     0.35173   0.25227   0.88742   0.00000  Uiso   1.00
N547   N     0.53797   0.79824   0.48510   0.00000  Uiso   1.00
N548   N     0.92817   0.79601   0.87957   0.00000  Uiso   1.00
N549   N     0.42412   0.12290   0.85342   0.00000  Uiso   1.00
N550   N     0.55934   0.88180   0.46112   0.00000  Uiso   1.00
N551   N     0.94954   0.87958   0.85560   0.00000  Uiso   1.00
N552   N     0.44548   0.20647   0.82945   0.00000  Uiso   1.00
