data_job_07092
_audit_creation_date              2018-12-19
_audit_creation_method            'Materials Studio'
_symmetry_space_group_name_H-M    'P1'
_symmetry_Int_Tables_number       1
_symmetry_cell_setting            triclinic
loop_
_symmetry_equiv_pos_as_xyz
  x,y,z
_cell_length_a                    23.3905
_cell_length_b                    20.0617
_cell_length_c                    21.4670
_cell_angle_alpha                 75.3722
_cell_angle_beta                  87.0142
_cell_angle_gamma                 85.2412
loop_
_atom_site_label
_atom_site_type_symbol
_atom_site_fract_x
_atom_site_fract_y
_atom_site_fract_z
_atom_site_U_iso_or_equiv
_atom_site_adp_type
_atom_site_occupancy
C1     C     0.89397   0.27064   0.33029   0.00000  Uiso   1.00
C2     C     0.90769   0.19840   0.32018   0.00000  Uiso   1.00
C3     C     0.87285   0.14363   0.33936   0.00000  Uiso   1.00
C4     C     0.89311   0.08168   0.32567   0.00000  Uiso   1.00
C5     C     0.90634   0.97053   0.31483   0.00000  Uiso   1.00
C6     C     0.94384   0.28470   0.36702   0.00000  Uiso   1.00
C7     C     0.93940   0.30251   0.42559   0.00000  Uiso   1.00
C8     C     0.99009   0.31322   0.45133   0.00000  Uiso   1.00
C9     C     0.05945   0.33611   0.51319   0.00000  Uiso   1.00
C10    C     0.89746   0.32018   0.26363   0.00000  Uiso   1.00
C11    C     0.85403   0.36784   0.23526   0.00000  Uiso   1.00
C12    C     0.86568   0.40844   0.17395   0.00000  Uiso   1.00
C13    C     0.86303   0.48642   0.07527   0.00000  Uiso   1.00
C14    C     0.99188   0.25802   0.27186   0.00000  Uiso   1.00
C15    C     0.96087   0.19154   0.28844   0.00000  Uiso   1.00
C16    C     0.98118   0.12966   0.27471   0.00000  Uiso   1.00
C17    C     0.94638   0.07481   0.29387   0.00000  Uiso   1.00
C18    C     0.99703   0.27785   0.33529   0.00000  Uiso   1.00
C19    C     0.04773   0.28854   0.36094   0.00000  Uiso   1.00
C20    C     0.04337   0.30635   0.41954   0.00000  Uiso   1.00
C21    C     0.95065   0.31333   0.23189   0.00000  Uiso   1.00
C22    C     0.96236   0.35387   0.17061   0.00000  Uiso   1.00
C23    C     0.91896   0.40157   0.14216   0.00000  Uiso   1.00
H24    H     0.85256   0.27598   0.35500   0.00000  Uiso   1.00
H25    H     0.83170   0.14895   0.36393   0.00000  Uiso   1.00
H26    H     0.89824   0.30781   0.45014   0.00000  Uiso   1.00
H27    H     0.81288   0.37313   0.25983   0.00000  Uiso   1.00
H28    H     0.83204   0.00508   0.35985   0.00000  Uiso   1.00
H29    H     0.97234   0.34007   0.54162   0.00000  Uiso   1.00
H30    H     0.79234   0.47781   0.14033   0.00000  Uiso   1.00
H31    H     0.03329   0.25269   0.24715   0.00000  Uiso   1.00
H32    H     0.02234   0.12437   0.25015   0.00000  Uiso   1.00
H33    H     0.08888   0.28324   0.33637   0.00000  Uiso   1.00
H34    H     0.00352   0.34855   0.14607   0.00000  Uiso   1.00
H35    H     0.98677   0.98513   0.26751   0.00000  Uiso   1.00
H36    H     0.12707   0.32013   0.44928   0.00000  Uiso   1.00
H37    H     0.94708   0.45786   0.04799   0.00000  Uiso   1.00
O38    O     0.89895   0.91111   0.31762   0.00000  Uiso   1.00
O39    O     0.08302   0.35062   0.55609   0.00000  Uiso   1.00
O40    O     0.84687   0.53132   0.02961   0.00000  Uiso   1.00
N41    N     0.86995   0.01800   0.33769   0.00000  Uiso   1.00
N42    N     0.00112   0.33119   0.50764   0.00000  Uiso   1.00
N43    N     0.83285   0.45997   0.13248   0.00000  Uiso   1.00
N44    N     0.95321   0.00726   0.28801   0.00000  Uiso   1.00
N45    N     0.08438   0.32045   0.45796   0.00000  Uiso   1.00
N46    N     0.91611   0.44924   0.08279   0.00000  Uiso   1.00
C47    C     0.39957   0.88466   0.31138   0.00000  Uiso   1.00
C48    C     0.40364   0.89531   0.23844   0.00000  Uiso   1.00
C49    C     0.41986   0.84464   0.20607   0.00000  Uiso   1.00
C50    C     0.42089   0.86478   0.13923   0.00000  Uiso   1.00
C51    C     0.42946   0.87092   0.03102   0.00000  Uiso   1.00
C52    C     0.43821   0.93571   0.32661   0.00000  Uiso   1.00
C53    C     0.48349   0.91899   0.36837   0.00000  Uiso   1.00
C54    C     0.51362   0.97314   0.37575   0.00000  Uiso   1.00
C55    C     0.57584   0.04200   0.40446   0.00000  Uiso   1.00
C56    C     0.33836   0.90925   0.32721   0.00000  Uiso   1.00
C57    C     0.29970   0.87029   0.36950   0.00000  Uiso   1.00
C58    C     0.24577   0.90217   0.37741   0.00000  Uiso   1.00
C59    C     0.15296   0.92995   0.40705   0.00000  Uiso   1.00
C60    C     0.37256   0.01056   0.25026   0.00000  Uiso   1.00
C61    C     0.38896   0.96369   0.20524   0.00000  Uiso   1.00
C62    C     0.38997   0.98392   0.13844   0.00000  Uiso   1.00
C63    C     0.40619   0.93329   0.10597   0.00000  Uiso   1.00
C64    C     0.42354   0.00408   0.29341   0.00000  Uiso   1.00
C65    C     0.45360   0.05828   0.30074   0.00000  Uiso   1.00
C66    C     0.49892   0.04165   0.34249   0.00000  Uiso   1.00
C67    C     0.32369   0.97763   0.29401   0.00000  Uiso   1.00
C68    C     0.26981   0.00958   0.30186   0.00000  Uiso   1.00
C69    C     0.23107   0.97068   0.34415   0.00000  Uiso   1.00
H70    H     0.41100   0.83143   0.33724   0.00000  Uiso   1.00
H71    H     0.43122   0.79173   0.23178   0.00000  Uiso   1.00
H72    H     0.49483   0.86607   0.39406   0.00000  Uiso   1.00
H73    H     0.31107   0.81738   0.39518   0.00000  Uiso   1.00
H74    H     0.44718   0.77787   0.10022   0.00000  Uiso   1.00
H75    H     0.58131   0.93463   0.44241   0.00000  Uiso   1.00
H76    H     0.19381   0.83195   0.44478   0.00000  Uiso   1.00
H77    H     0.36113   0.06380   0.22441   0.00000  Uiso   1.00
H78    H     0.37861   0.03684   0.11276   0.00000  Uiso   1.00
H79    H     0.44223   0.11119   0.27504   0.00000  Uiso   1.00
H80    H     0.25847   0.06249   0.27616   0.00000  Uiso   1.00
H81    H     0.40449   0.97682   0.00362   0.00000  Uiso   1.00
H82    H     0.53862   0.13358   0.34581   0.00000  Uiso   1.00
H83    H     0.15112   0.03090   0.34818   0.00000  Uiso   1.00
O84    O     0.43825   0.85542   0.98051   0.00000  Uiso   1.00
O85    O     0.61421   0.06109   0.42946   0.00000  Uiso   1.00
O86    O     0.10582   0.92638   0.43257   0.00000  Uiso   1.00
N87    N     0.43472   0.82839   0.09281   0.00000  Uiso   1.00
N88    N     0.56013   0.97495   0.41273   0.00000  Uiso   1.00
N89    N     0.19785   0.87896   0.41496   0.00000  Uiso   1.00
N90    N     0.41175   0.93544   0.04083   0.00000  Uiso   1.00
N91    N     0.53716   0.08200   0.36075   0.00000  Uiso   1.00
N92    N     0.17488   0.98601   0.36298   0.00000  Uiso   1.00
C93    C     0.52140   0.45626   0.84654   0.00000  Uiso   1.00
C94    C     0.47702   0.47768   0.79426   0.00000  Uiso   1.00
C95    C     0.47842   0.53464   0.74184   0.00000  Uiso   1.00
C96    C     0.43380   0.54539   0.69942   0.00000  Uiso   1.00
C97    C     0.37163   0.58546   0.61678   0.00000  Uiso   1.00
C98    C     0.48824   0.45257   0.91026   0.00000  Uiso   1.00
C99    C     0.49907   0.48841   0.95536   0.00000  Uiso   1.00
C100   C     0.46390   0.47800   0.01059   0.00000  Uiso   1.00
C101   C     0.41918   0.47905   0.10805   0.00000  Uiso   1.00
C102   C     0.54292   0.38219   0.84737   0.00000  Uiso   1.00
C103   C     0.59974   0.35885   0.83962   0.00000  Uiso   1.00
C104   C     0.61060   0.28918   0.84192   0.00000  Uiso   1.00
C105   C     0.65079   0.18096   0.84174   0.00000  Uiso   1.00
C106   C     0.43968   0.37406   0.86442   0.00000  Uiso   1.00
C107   C     0.43263   0.43303   0.80397   0.00000  Uiso   1.00
C108   C     0.38800   0.44369   0.76162   0.00000  Uiso   1.00
C109   C     0.38933   0.50065   0.70914   0.00000  Uiso   1.00
C110   C     0.44385   0.40792   0.91996   0.00000  Uiso   1.00
C111   C     0.40866   0.39746   0.97514   0.00000  Uiso   1.00
C112   C     0.41943   0.43327   0.02032   0.00000  Uiso   1.00
C113   C     0.49854   0.33754   0.85708   0.00000  Uiso   1.00
C114   C     0.50932   0.26790   0.85939   0.00000  Uiso   1.00
C115   C     0.56614   0.24445   0.85164   0.00000  Uiso   1.00
H116   H     0.55595   0.49102   0.83899   0.00000  Uiso   1.00
H117   H     0.51277   0.56919   0.73435   0.00000  Uiso   1.00
H118   H     0.53343   0.52295   0.94784   0.00000  Uiso   1.00
H119   H     0.63407   0.39341   0.83211   0.00000  Uiso   1.00
H120   H     0.44531   0.63617   0.62263   0.00000  Uiso   1.00
H121   H     0.48888   0.53867   0.07280   0.00000  Uiso   1.00
H122   H     0.70111   0.26551   0.82876   0.00000  Uiso   1.00
H123   H     0.40512   0.33929   0.87198   0.00000  Uiso   1.00
H124   H     0.35366   0.40913   0.76914   0.00000  Uiso   1.00
H125   H     0.37431   0.36290   0.98263   0.00000  Uiso   1.00
H126   H     0.47496   0.23336   0.86690   0.00000  Uiso   1.00
H127   H     0.31617   0.50627   0.65087   0.00000  Uiso   1.00
H128   H     0.35974   0.40876   0.10104   0.00000  Uiso   1.00
H129   H     0.57197   0.13560   0.85700   0.00000  Uiso   1.00
O130   O     0.34960   0.61991   0.56852   0.00000  Uiso   1.00
O131   O     0.40677   0.49198   0.15912   0.00000  Uiso   1.00
O132   O     0.68521   0.13361   0.83895   0.00000  Uiso   1.00
N133   N     0.42198   0.59600   0.64338   0.00000  Uiso   1.00
N134   N     0.46271   0.50485   0.06426   0.00000  Uiso   1.00
N135   N     0.66113   0.24947   0.83612   0.00000  Uiso   1.00
N136   N     0.35249   0.52610   0.65858   0.00000  Uiso   1.00
N137   N     0.39322   0.43495   0.07945   0.00000  Uiso   1.00
N138   N     0.59164   0.17957   0.85131   0.00000  Uiso   1.00
C139   C     0.50231   0.88198   0.75132   0.00000  Uiso   1.00
C140   C     0.49673   0.85723   0.69048   0.00000  Uiso   1.00
C141   C     0.44649   0.86034   0.65788   0.00000  Uiso   1.00
C142   C     0.45033   0.83503   0.60317   0.00000  Uiso   1.00
C143   C     0.43373   0.80080   0.51192   0.00000  Uiso   1.00
C144   C     0.54808   0.93414   0.73543   0.00000  Uiso   1.00
C145   C     0.54103   0.00191   0.74064   0.00000  Uiso   1.00
C146   C     0.58811   0.04134   0.72378   0.00000  Uiso   1.00
C147   C     0.65125   0.12650   0.70237   0.00000  Uiso   1.00
C148   C     0.52801   0.81998   0.80119   0.00000  Uiso   1.00
C149   C     0.50408   0.79177   0.86170   0.00000  Uiso   1.00
C150   C     0.53427   0.73509   0.90021   0.00000  Uiso   1.00
C151   C     0.56624   0.64300   0.98090   0.00000  Uiso   1.00
C152   C     0.59847   0.83149   0.71214   0.00000  Uiso   1.00
C153   C     0.54896   0.82980   0.66920   0.00000  Uiso   1.00
C154   C     0.55288   0.80448   0.61453   0.00000  Uiso   1.00
C155   C     0.50266   0.80755   0.58185   0.00000  Uiso   1.00
C156   C     0.60031   0.90672   0.71415   0.00000  Uiso   1.00
C157   C     0.64742   0.94605   0.69729   0.00000  Uiso   1.00
C158   C     0.64043   0.01387   0.70246   0.00000  Uiso   1.00
C159   C     0.58024   0.79255   0.77991   0.00000  Uiso   1.00
C160   C     0.61047   0.73591   0.81834   0.00000  Uiso   1.00
C161   C     0.58659   0.70762   0.87889   0.00000  Uiso   1.00
H162   H     0.46165   0.90333   0.76789   0.00000  Uiso   1.00
H163   H     0.40608   0.88157   0.67436   0.00000  Uiso   1.00
H164   H     0.50061   0.02312   0.75711   0.00000  Uiso   1.00
H165   H     0.46366   0.81301   0.87815   0.00000  Uiso   1.00
H166   H     0.36751   0.84538   0.56127   0.00000  Uiso   1.00
H167   H     0.56683   0.14383   0.73578   0.00000  Uiso   1.00
H168   H     0.48893   0.70077   0.99101   0.00000  Uiso   1.00
H169   H     0.63913   0.81014   0.69557   0.00000  Uiso   1.00
H170   H     0.59330   0.78326   0.59807   0.00000  Uiso   1.00
H171   H     0.68783   0.92481   0.68083   0.00000  Uiso   1.00
H172   H     0.65089   0.71470   0.80186   0.00000  Uiso   1.00
H173   H     0.51947   0.76559   0.49935   0.00000  Uiso   1.00
H174   H     0.71879   0.06404   0.67387   0.00000  Uiso   1.00
H175   H     0.64089   0.62098   0.92909   0.00000  Uiso   1.00
O176   O     0.41014   0.78951   0.46746   0.00000  Uiso   1.00
O177   O     0.67164   0.18106   0.69643   0.00000  Uiso   1.00
O178   O     0.56944   0.59977   0.03128   0.00000  Uiso   1.00
N179   N     0.40956   0.83028   0.56008   0.00000  Uiso   1.00
N180   N     0.59591   0.10931   0.72323   0.00000  Uiso   1.00
N181   N     0.52309   0.69510   0.96186   0.00000  Uiso   1.00
N182   N     0.49133   0.78734   0.52677   0.00000  Uiso   1.00
N183   N     0.67768   0.06638   0.68991   0.00000  Uiso   1.00
N184   N     0.60486   0.65216   0.92854   0.00000  Uiso   1.00
C185   C     0.89731   0.73773   0.38519   0.00000  Uiso   1.00
C186   C     0.91841   0.66884   0.37119   0.00000  Uiso   1.00
C187   C     0.93998   0.65958   0.31226   0.00000  Uiso   1.00
C188   C     0.95703   0.59246   0.30931   0.00000  Uiso   1.00
C189   C     0.99048   0.49398   0.27934   0.00000  Uiso   1.00
C190   C     0.93221   0.74441   0.44109   0.00000  Uiso   1.00
C191   C     0.96538   0.79869   0.44094   0.00000  Uiso   1.00
C192   C     0.99404   0.79519   0.49684   0.00000  Uiso   1.00
C193   C     0.04888   0.81405   0.57542   0.00000  Uiso   1.00
C194   C     0.83578   0.72955   0.41152   0.00000  Uiso   1.00
C195   C     0.78788   0.77134   0.38652   0.00000  Uiso   1.00
C196   C     0.73536   0.75534   0.41753   0.00000  Uiso   1.00
C197   C     0.64049   0.75113   0.45020   0.00000  Uiso   1.00
C198   C     0.88922   0.63500   0.48473   0.00000  Uiso   1.00
C199   C     0.91401   0.61304   0.42525   0.00000  Uiso   1.00
C200   C     0.93103   0.54591   0.42239   0.00000  Uiso   1.00
C201   C     0.95263   0.53655   0.36347   0.00000  Uiso   1.00
C202   C     0.92781   0.68861   0.49516   0.00000  Uiso   1.00
C203   C     0.95643   0.68503   0.55107   0.00000  Uiso   1.00
C204   C     0.98964   0.73929   0.55101   0.00000  Uiso   1.00
C205   C     0.83139   0.67375   0.46559   0.00000  Uiso   1.00
C206   C     0.77893   0.65768   0.49665   0.00000  Uiso   1.00
C207   C     0.73096   0.69944   0.47170   0.00000  Uiso   1.00
H208   H     0.90073   0.78118   0.34310   0.00000  Uiso   1.00
H209   H     0.94338   0.70277   0.27043   0.00000  Uiso   1.00
H210   H     0.96877   0.84187   0.39910   0.00000  Uiso   1.00
H211   H     0.79130   0.81452   0.34468   0.00000  Uiso   1.00
H212   H     0.98874   0.59125   0.21371   0.00000  Uiso   1.00
H213   H     0.04226   0.88454   0.48502   0.00000  Uiso   1.00
H214   H     0.66802   0.82688   0.37027   0.00000  Uiso   1.00
H215   H     0.88580   0.59156   0.52683   0.00000  Uiso   1.00
H216   H     0.92763   0.50274   0.46424   0.00000  Uiso   1.00
H217   H     0.95302   0.64184   0.59290   0.00000  Uiso   1.00
H218   H     0.77554   0.61449   0.53849   0.00000  Uiso   1.00
H219   H     0.97596   0.42889   0.37101   0.00000  Uiso   1.00
H220   H     0.02947   0.72220   0.64232   0.00000  Uiso   1.00
H221   H     0.65524   0.66453   0.52757   0.00000  Uiso   1.00
O222   O     0.01015   0.45507   0.24788   0.00000  Uiso   1.00
O223   O     0.08035   0.83988   0.60382   0.00000  Uiso   1.00
O224   O     0.58937   0.76422   0.45328   0.00000  Uiso   1.00
N225   N     0.97998   0.56522   0.25932   0.00000  Uiso   1.00
N226   N     0.03002   0.83943   0.51297   0.00000  Uiso   1.00
N227   N     0.68015   0.78554   0.40570   0.00000  Uiso   1.00
N228   N     0.97310   0.47786   0.34396   0.00000  Uiso   1.00
N229   N     0.02315   0.75207   0.59761   0.00000  Uiso   1.00
N230   N     0.67327   0.69818   0.49034   0.00000  Uiso   1.00
C231   C     0.85035   0.39210   0.80276   0.00000  Uiso   1.00
C232   C     0.80975   0.41788   0.74702   0.00000  Uiso   1.00
C233   C     0.75201   0.40602   0.74870   0.00000  Uiso   1.00
C234   C     0.72225   0.43402   0.69268   0.00000  Uiso   1.00
C235   C     0.65509   0.46823   0.61460   0.00000  Uiso   1.00
C236   C     0.87535   0.45611   0.81323   0.00000  Uiso   1.00
C237   C     0.87276   0.47638   0.87059   0.00000  Uiso   1.00
C238   C     0.89824   0.53656   0.87029   0.00000  Uiso   1.00
C239   C     0.93295   0.63009   0.89502   0.00000  Uiso   1.00
C240   C     0.90009   0.35085   0.77780   0.00000  Uiso   1.00
C241   C     0.91833   0.28262   0.80538   0.00000  Uiso   1.00
C242   C     0.96465   0.25418   0.77527   0.00000  Uiso   1.00
C243   C     0.03779   0.18428   0.74499   0.00000  Uiso   1.00
C244   C     0.90018   0.46292   0.70027   0.00000  Uiso   1.00
C245   C     0.83682   0.45635   0.69135   0.00000  Uiso   1.00
C246   C     0.80715   0.48438   0.63530   0.00000  Uiso   1.00
C247   C     0.74937   0.47256   0.63690   0.00000  Uiso   1.00
C248   C     0.90241   0.49458   0.75756   0.00000  Uiso   1.00
C249   C     0.92790   0.55474   0.75718   0.00000  Uiso   1.00
C250   C     0.92535   0.57510   0.81452   0.00000  Uiso   1.00
C251   C     0.92716   0.38931   0.72213   0.00000  Uiso   1.00
C252   C     0.97347   0.36098   0.69197   0.00000  Uiso   1.00
C253   C     0.99177   0.29272   0.71950   0.00000  Uiso   1.00
H254   H     0.82927   0.36215   0.84611   0.00000  Uiso   1.00
H255   H     0.73107   0.37625   0.79180   0.00000  Uiso   1.00
H256   H     0.85182   0.44660   0.91366   0.00000  Uiso   1.00
H257   H     0.89737   0.25287   0.84846   0.00000  Uiso   1.00
H258   H     0.63414   0.40887   0.70704   0.00000  Uiso   1.00
H259   H     0.88874   0.55719   0.96400   0.00000  Uiso   1.00
H260   H     0.98481   0.14867   0.82652   0.00000  Uiso   1.00
H261   H     0.92126   0.49287   0.65692   0.00000  Uiso   1.00
H262   H     0.82811   0.51414   0.59223   0.00000  Uiso   1.00
H263   H     0.94885   0.58449   0.71409   0.00000  Uiso   1.00
H264   H     0.99440   0.39076   0.64889   0.00000  Uiso   1.00
H265   H     0.71289   0.52079   0.54506   0.00000  Uiso   1.00
H266   H     0.96750   0.66910   0.80202   0.00000  Uiso   1.00
H267   H     0.06357   0.26059   0.66454   0.00000  Uiso   1.00
O268   O     0.61057   0.47648   0.58692   0.00000  Uiso   1.00
O269   O     0.94462   0.67106   0.92404   0.00000  Uiso   1.00
O270   O     0.07065   0.13510   0.74367   0.00000  Uiso   1.00
N271   N     0.66546   0.43228   0.67780   0.00000  Uiso   1.00
N272   N     0.90349   0.57095   0.91803   0.00000  Uiso   1.00
N273   N     0.99332   0.18903   0.78951   0.00000  Uiso   1.00
N274   N     0.70783   0.49250   0.59064   0.00000  Uiso   1.00
N275   N     0.94587   0.63117   0.83087   0.00000  Uiso   1.00
N276   N     0.03569   0.24925   0.70235   0.00000  Uiso   1.00
C277   C     0.17907   0.80214   0.81571   0.00000  Uiso   1.00
C278   C     0.13205   0.84625   0.84162   0.00000  Uiso   1.00
C279   C     0.11757   0.91585   0.81541   0.00000  Uiso   1.00
C280   C     0.07328   0.94689   0.84621   0.00000  Uiso   1.00
C281   C     0.00461   0.02104   0.87804   0.00000  Uiso   1.00
C282   C     0.14991   0.74155   0.80362   0.00000  Uiso   1.00
C283   C     0.15044   0.72313   0.74546   0.00000  Uiso   1.00
C284   C     0.12118   0.66603   0.74428   0.00000  Uiso   1.00
C285   C     0.08028   0.57761   0.71714   0.00000  Uiso   1.00
C286   C     0.21901   0.77156   0.87132   0.00000  Uiso   1.00
C287   C     0.27765   0.77834   0.87008   0.00000  Uiso   1.00
C288   C     0.30658   0.74649   0.92590   0.00000  Uiso   1.00
C289   C     0.37297   0.70466   0.00387   0.00000  Uiso   1.00
C290   C     0.12618   0.73348   0.91703   0.00000  Uiso   1.00
C291   C     0.10332   0.80895   0.89665   0.00000  Uiso   1.00
C292   C     0.05904   0.83989   0.92750   0.00000  Uiso   1.00
C293   C     0.04449   0.90953   0.90134   0.00000  Uiso   1.00
C294   C     0.12117   0.70426   0.85865   0.00000  Uiso   1.00
C295   C     0.09192   0.64717   0.85756   0.00000  Uiso   1.00
C296   C     0.09240   0.62867   0.79941   0.00000  Uiso   1.00
C297   C     0.19028   0.73426   0.92635   0.00000  Uiso   1.00
C298   C     0.21913   0.70238   0.98218   0.00000  Uiso   1.00
C299   C     0.27780   0.70913   0.98103   0.00000  Uiso   1.00
H300   H     0.20144   0.83117   0.77287   0.00000  Uiso   1.00
H301   H     0.13981   0.94469   0.77282   0.00000  Uiso   1.00
H302   H     0.17268   0.75199   0.70289   0.00000  Uiso   1.00
H303   H     0.29987   0.80721   0.82749   0.00000  Uiso   1.00
H304   H     0.05879   0.05410   0.79701   0.00000  Uiso   1.00
H305   H     0.12812   0.64778   0.64957   0.00000  Uiso   1.00
H306   H     0.39633   0.76420   0.91232   0.00000  Uiso   1.00
H307   H     0.10381   0.70444   0.95987   0.00000  Uiso   1.00
H308   H     0.03682   0.81102   0.97008   0.00000  Uiso   1.00
H309   H     0.06969   0.61832   0.90015   0.00000  Uiso   1.00
H310   H     0.19688   0.67353   0.02475   0.00000  Uiso   1.00
H311   H     0.97520   0.94561   0.95712   0.00000  Uiso   1.00
H312   H     0.04453   0.53928   0.80968   0.00000  Uiso   1.00
H313   H     0.31273   0.65570   0.07242   0.00000  Uiso   1.00
O314   O     0.97467   0.07225   0.88040   0.00000  Uiso   1.00
O315   O     0.06565   0.53916   0.68696   0.00000  Uiso   1.00
O316   O     0.41752   0.69190   0.03168   0.00000  Uiso   1.00
N317   N     0.04832   0.01395   0.83330   0.00000  Uiso   1.00
N318   N     0.11313   0.63406   0.69545   0.00000  Uiso   1.00
N319   N     0.36388   0.74289   0.94109   0.00000  Uiso   1.00
N320   N     0.00334   0.95557   0.91945   0.00000  Uiso   1.00
N321   N     0.06815   0.57568   0.78160   0.00000  Uiso   1.00
N322   N     0.31890   0.68451   0.02724   0.00000  Uiso   1.00
C323   C     0.83593   0.11595   0.56160   0.00000  Uiso   1.00
C324   C     0.83134   0.12419   0.63042   0.00000  Uiso   1.00
C325   C     0.80983   0.18311   0.64894   0.00000  Uiso   1.00
C326   C     0.80925   0.18029   0.71426   0.00000  Uiso   1.00
C327   C     0.79901   0.20215   0.81426   0.00000  Uiso   1.00
C328   C     0.80308   0.05330   0.56192   0.00000  Uiso   1.00
C329   C     0.75781   0.05262   0.52283   0.00000  Uiso   1.00
C330   C     0.73346   0.99013   0.53047   0.00000  Uiso   1.00
C331   C     0.67938   0.90193   0.52408   0.00000  Uiso   1.00
C332   C     0.89890   0.09513   0.54940   0.00000  Uiso   1.00
C333   C     0.93420   0.12960   0.49977   0.00000  Uiso   1.00
C334   C     0.99052   0.10232   0.49686   0.00000  Uiso   1.00
C335   C     0.08521   0.07906   0.47103   0.00000  Uiso   1.00
C336   C     0.87317   0.00619   0.64468   0.00000  Uiso   1.00
C337   C     0.85156   0.06457   0.67554   0.00000  Uiso   1.00
C338   C     0.85103   0.06167   0.74085   0.00000  Uiso   1.00
C339   C     0.82952   0.12057   0.75946   0.00000  Uiso   1.00
C340   C     0.82330   0.99369   0.60704   0.00000  Uiso   1.00
C341   C     0.79902   0.93119   0.61474   0.00000  Uiso   1.00
C342   C     0.75372   0.93041   0.57567   0.00000  Uiso   1.00
C343   C     0.91913   0.03552   0.59452   0.00000  Uiso   1.00
C344   C     0.97540   0.00817   0.59168   0.00000  Uiso   1.00
C345   C     0.01078   0.04260   0.54206   0.00000  Uiso   1.00
H346   H     0.82018   0.16236   0.52647   0.00000  Uiso   1.00
H347   H     0.79417   0.22923   0.61401   0.00000  Uiso   1.00
H348   H     0.74217   0.09876   0.48791   0.00000  Uiso   1.00
H349   H     0.91853   0.17573   0.46486   0.00000  Uiso   1.00
H350   H     0.77423   0.27707   0.73096   0.00000  Uiso   1.00
H351   H     0.66461   0.00197   0.46506   0.00000  Uiso   1.00
H352   H     0.03649   0.16428   0.41645   0.00000  Uiso   1.00
H353   H     0.88892   0.95978   0.67981   0.00000  Uiso   1.00
H354   H     0.86668   0.01553   0.77576   0.00000  Uiso   1.00
H355   H     0.81468   0.88506   0.64966   0.00000  Uiso   1.00
H356   H     0.99104   0.96204   0.62661   0.00000  Uiso   1.00
H357   H     0.83308   0.10362   0.86224   0.00000  Uiso   1.00
H358   H     0.72346   0.82852   0.59634   0.00000  Uiso   1.00
H359   H     0.09534   0.99083   0.54773   0.00000  Uiso   1.00
O360   O     0.78777   0.23067   0.85695   0.00000  Uiso   1.00
O361   O     0.64395   0.86975   0.50810   0.00000  Uiso   1.00
O362   O     0.13185   0.08270   0.44432   0.00000  Uiso   1.00
N363   N     0.79114   0.22860   0.74868   0.00000  Uiso   1.00
N364   N     0.68864   0.97140   0.50009   0.00000  Uiso   1.00
N365   N     0.03632   0.12314   0.45463   0.00000  Uiso   1.00
N366   N     0.82281   0.13527   0.81933   0.00000  Uiso   1.00
N367   N     0.72031   0.87807   0.57074   0.00000  Uiso   1.00
N368   N     0.06799   0.02981   0.52528   0.00000  Uiso   1.00
C369   C     0.75491   0.73994   0.91862   0.00000  Uiso   1.00
C370   C     0.80598   0.74167   0.95939   0.00000  Uiso   1.00
C371   C     0.81756   0.69751   0.01914   0.00000  Uiso   1.00
C372   C     0.86644   0.70752   0.04869   0.00000  Uiso   1.00
C373   C     0.94028   0.70223   0.11643   0.00000  Uiso   1.00
C374   C     0.78011   0.73231   0.85361   0.00000  Uiso   1.00
C375   C     0.76993   0.68028   0.82442   0.00000  Uiso   1.00
C376   C     0.79702   0.68240   0.76492   0.00000  Uiso   1.00
C377   C     0.83067   0.66260   0.66841   0.00000  Uiso   1.00
C378   C     0.72403   0.81183   0.90599   0.00000  Uiso   1.00
C379   C     0.66669   0.82666   0.92082   0.00000  Uiso   1.00
C380   C     0.64656   0.89573   0.90541   0.00000  Uiso   1.00
C381   C     0.59313   0.99939   0.89023   0.00000  Uiso   1.00
C382   C     0.82113   0.83624   0.86484   0.00000  Uiso   1.00
C383   C     0.84195   0.79398   0.93018   0.00000  Uiso   1.00
C384   C     0.89082   0.80406   0.95964   0.00000  Uiso   1.00
C385   C     0.90247   0.75992   0.01943   0.00000  Uiso   1.00
C386   C     0.81608   0.78461   0.82440   0.00000  Uiso   1.00
C387   C     0.84319   0.78682   0.76493   0.00000  Uiso   1.00
C388   C     0.83306   0.73480   0.73566   0.00000  Uiso   1.00
C389   C     0.75999   0.86413   0.87678   0.00000  Uiso   1.00
C390   C     0.73995   0.93320   0.86133   0.00000  Uiso   1.00
C391   C     0.68259   0.94813   0.87614   0.00000  Uiso   1.00
H392   H     0.72691   0.69922   0.94135   0.00000  Uiso   1.00
H393   H     0.78972   0.65704   0.04173   0.00000  Uiso   1.00
H394   H     0.74209   0.63981   0.84704   0.00000  Uiso   1.00
H395   H     0.63887   0.78617   0.94343   0.00000  Uiso   1.00
H396   H     0.87522   0.63332   0.14012   0.00000  Uiso   1.00
H397   H     0.77478   0.59701   0.72959   0.00000  Uiso   1.00
H398   H     0.55711   0.90563   0.93285   0.00000  Uiso   1.00
H399   H     0.84913   0.87696   0.84210   0.00000  Uiso   1.00
H400   H     0.91864   0.84454   0.93703   0.00000  Uiso   1.00
H401   H     0.87102   0.82730   0.74233   0.00000  Uiso   1.00
H402   H     0.76779   0.97366   0.83873   0.00000  Uiso   1.00
H403   H     0.97986   0.78550   0.05514   0.00000  Uiso   1.00
H404   H     0.87942   0.74919   0.64461   0.00000  Uiso   1.00
H405   H     0.66176   0.05781   0.84787   0.00000  Uiso   1.00
O406   O     0.97107   0.68486   0.16186   0.00000  Uiso   1.00
O407   O     0.83929   0.63722   0.62326   0.00000  Uiso   1.00
O408   O     0.55372   0.04213   0.88993   0.00000  Uiso   1.00
N409   N     0.89030   0.67360   0.10710   0.00000  Uiso   1.00
N410   N     0.79640   0.63964   0.72328   0.00000  Uiso   1.00
N411   N     0.59290   0.92817   0.91330   0.00000  Uiso   1.00
N412   N     0.94661   0.75548   0.06137   0.00000  Uiso   1.00
N413   N     0.85271   0.72152   0.67756   0.00000  Uiso   1.00
N414   N     0.64921   0.01006   0.86757   0.00000  Uiso   1.00
C415   C     0.65209   0.19800   0.05444   0.00000  Uiso   1.00
C416   C     0.66342   0.17192   0.12613   0.00000  Uiso   1.00
C417   C     0.70812   0.12532   0.15286   0.00000  Uiso   1.00
C418   C     0.71106   0.10798   0.21951   0.00000  Uiso   1.00
C419   C     0.73478   0.06317   0.32498   0.00000  Uiso   1.00
C420   C     0.59094   0.18121   0.04629   0.00000  Uiso   1.00
C421   C     0.57470   0.14243   0.00589   0.00000  Uiso   1.00
C422   C     0.51662   0.13293   0.00532   0.00000  Uiso   1.00
C423   C     0.42780   0.10258   0.98681   0.00000  Uiso   1.00
C424   C     0.65101   0.27654   0.03943   0.00000  Uiso   1.00
C425   C     0.68526   0.31792   0.99324   0.00000  Uiso   1.00
C426   C     0.67775   0.38868   0.98688   0.00000  Uiso   1.00
C427   C     0.68220   0.50634   0.95771   0.00000  Uiso   1.00
C428   C     0.57782   0.25008   0.12527   0.00000  Uiso   1.00
C429   C     0.62308   0.20021   0.16460   0.00000  Uiso   1.00
C430   C     0.62595   0.18295   0.23123   0.00000  Uiso   1.00
C431   C     0.67065   0.13633   0.25805   0.00000  Uiso   1.00
C432   C     0.55060   0.20950   0.08476   0.00000  Uiso   1.00
C433   C     0.49253   0.20006   0.08425   0.00000  Uiso   1.00
C434   C     0.47621   0.16127   0.04386   0.00000  Uiso   1.00
C435   C     0.61067   0.30483   0.07790   0.00000  Uiso   1.00
C436   C     0.60310   0.37554   0.07161   0.00000  Uiso   1.00
C437   C     0.63734   0.41702   0.02543   0.00000  Uiso   1.00
H438   H     0.68349   0.17597   0.02448   0.00000  Uiso   1.00
H439   H     0.73933   0.10343   0.12307   0.00000  Uiso   1.00
H440   H     0.60592   0.12055   0.97612   0.00000  Uiso   1.00
H441   H     0.71647   0.29601   0.96348   0.00000  Uiso   1.00
H442   H     0.78343   0.03547   0.24934   0.00000  Uiso   1.00
H443   H     0.50214   0.07159   0.93946   0.00000  Uiso   1.00
H444   H     0.73525   0.44157   0.91281   0.00000  Uiso   1.00
H445   H     0.54641   0.27211   0.15522   0.00000  Uiso   1.00
H446   H     0.59473   0.20485   0.26099   0.00000  Uiso   1.00
H447   H     0.46133   0.22196   0.11403   0.00000  Uiso   1.00
H448   H     0.57188   0.39742   0.10139   0.00000  Uiso   1.00
H449   H     0.66607   0.11778   0.36128   0.00000  Uiso   1.00
H450   H     0.38478   0.15390   0.05140   0.00000  Uiso   1.00
H451   H     0.61789   0.52387   0.02474   0.00000  Uiso   1.00
O452   O     0.75900   0.03062   0.37253   0.00000  Uiso   1.00
O453   O     0.38996   0.07802   0.96597   0.00000  Uiso   1.00
O454   O     0.69580   0.56342   0.93100   0.00000  Uiso   1.00
N455   N     0.74919   0.06408   0.26117   0.00000  Uiso   1.00
N456   N     0.48620   0.09784   0.97146   0.00000  Uiso   1.00
N457   N     0.70413   0.44374   0.94653   0.00000  Uiso   1.00
N458   N     0.68604   0.10837   0.32140   0.00000  Uiso   1.00
N459   N     0.42305   0.14213   0.03169   0.00000  Uiso   1.00
N460   N     0.64098   0.48803   0.00676   0.00000  Uiso   1.00
C461   C     0.24665   0.29999   0.58338   0.00000  Uiso   1.00
C462   C     0.23764   0.37836   0.57074   0.00000  Uiso   1.00
C463   C     0.19283   0.41442   0.59588   0.00000  Uiso   1.00
C464   C     0.19222   0.48599   0.57852   0.00000  Uiso   1.00
C465   C     0.17172   0.60247   0.56510   0.00000  Uiso   1.00
C466   C     0.24965   0.28412   0.51741   0.00000  Uiso   1.00
C467   C     0.21493   0.24093   0.49773   0.00000  Uiso   1.00
C468   C     0.22443   0.23316   0.43548   0.00000  Uiso   1.00
C469   C     0.22260   0.20329   0.33930   0.00000  Uiso   1.00
C470   C     0.30653   0.28066   0.61022   0.00000  Uiso   1.00
C471   C     0.31965   0.23455   0.66856   0.00000  Uiso   1.00
C472   C     0.37705   0.22385   0.68444   0.00000  Uiso   1.00
C473   C     0.46354   0.18861   0.73234   0.00000  Uiso   1.00
C474   C     0.32526   0.36298   0.50784   0.00000  Uiso   1.00
C475   C     0.28034   0.41257   0.52970   0.00000  Uiso   1.00
C476   C     0.27980   0.48411   0.51230   0.00000  Uiso   1.00
C477   C     0.23500   0.52026   0.53742   0.00000  Uiso   1.00
C478   C     0.29234   0.31833   0.47638   0.00000  Uiso   1.00
C479   C     0.30191   0.31061   0.41415   0.00000  Uiso   1.00
C480   C     0.26721   0.26743   0.39438   0.00000  Uiso   1.00
C481   C     0.34923   0.31487   0.56919   0.00000  Uiso   1.00
C482   C     0.40662   0.30424   0.58498   0.00000  Uiso   1.00
C483   C     0.41983   0.25813   0.64333   0.00000  Uiso   1.00
H484   H     0.21341   0.27335   0.61532   0.00000  Uiso   1.00
H485   H     0.15979   0.38792   0.62763   0.00000  Uiso   1.00
H486   H     0.18189   0.21445   0.52950   0.00000  Uiso   1.00
H487   H     0.28659   0.20808   0.70029   0.00000  Uiso   1.00
H488   H     0.11916   0.53003   0.62316   0.00000  Uiso   1.00
H489   H     0.16578   0.16425   0.41625   0.00000  Uiso   1.00
H490   H     0.38657   0.15080   0.77641   0.00000  Uiso   1.00
H491   H     0.35851   0.38961   0.47589   0.00000  Uiso   1.00
H492   H     0.31285   0.51057   0.48055   0.00000  Uiso   1.00
H493   H     0.33496   0.33709   0.38242   0.00000  Uiso   1.00
H494   H     0.43966   0.33072   0.55322   0.00000  Uiso   1.00
H495   H     0.24339   0.62957   0.50378   0.00000  Uiso   1.00
H496   H     0.29001   0.26378   0.29687   0.00000  Uiso   1.00
H497   H     0.51080   0.25035   0.65703   0.00000  Uiso   1.00
O498   O     0.14861   0.65727   0.56903   0.00000  Uiso   1.00
O499   O     0.20979   0.17736   0.29758   0.00000  Uiso   1.00
O500   O     0.49945   0.15973   0.77010   0.00000  Uiso   1.00
N501   N     0.15467   0.53686   0.59444   0.00000  Uiso   1.00
N502   N     0.19825   0.19488   0.40098   0.00000  Uiso   1.00
N503   N     0.40467   0.18230   0.73770   0.00000  Uiso   1.00
N504   N     0.22152   0.59042   0.53020   0.00000  Uiso   1.00
N505   N     0.26510   0.24844   0.33675   0.00000  Uiso   1.00
N506   N     0.47152   0.23586   0.67346   0.00000  Uiso   1.00
C507   C     0.14337   0.64051   0.21875   0.00000  Uiso   1.00
C508   C     0.20877   0.63490   0.21361   0.00000  Uiso   1.00
C509   C     0.24336   0.68983   0.19356   0.00000  Uiso   1.00
C510   C     0.30224   0.67392   0.19217   0.00000  Uiso   1.00
C511   C     0.40024   0.67562   0.18142   0.00000  Uiso   1.00
C512   C     0.12341   0.59598   0.17722   0.00000  Uiso   1.00
C513   C     0.08622   0.61818   0.12659   0.00000  Uiso   1.00
C514   C     0.07325   0.56951   0.09458   0.00000  Uiso   1.00
C515   C     0.03869   0.51076   0.02736   0.00000  Uiso   1.00
C516   C     0.12744   0.60436   0.28814   0.00000  Uiso   1.00
C517   C     0.09362   0.63360   0.33077   0.00000  Uiso   1.00
C518   C     0.08403   0.59197   0.39214   0.00000  Uiso   1.00
C519   C     0.05572   0.54624   0.49715   0.00000  Uiso   1.00
C520   C     0.18645   0.51459   0.25192   0.00000  Uiso   1.00
C521   C     0.23217   0.56651   0.23162   0.00000  Uiso   1.00
C522   C     0.29102   0.55052   0.23027   0.00000  Uiso   1.00
C523   C     0.32569   0.60541   0.21022   0.00000  Uiso   1.00
C524   C     0.14681   0.52759   0.19524   0.00000  Uiso   1.00
C525   C     0.13389   0.47887   0.16329   0.00000  Uiso   1.00
C526   C     0.09669   0.50099   0.11263   0.00000  Uiso   1.00
C527   C     0.15084   0.53597   0.30616   0.00000  Uiso   1.00
C528   C     0.14129   0.49429   0.36747   0.00000  Uiso   1.00
C529   C     0.10747   0.52346   0.41019   0.00000  Uiso   1.00
H530   H     0.12515   0.69375   0.20472   0.00000  Uiso   1.00
H531   H     0.22523   0.74275   0.17962   0.00000  Uiso   1.00
H532   H     0.06812   0.67111   0.11266   0.00000  Uiso   1.00
H533   H     0.07552   0.68653   0.31681   0.00000  Uiso   1.00
H534   H     0.34651   0.76690   0.15971   0.00000  Uiso   1.00
H535   H     0.01521   0.61584   0.01855   0.00000  Uiso   1.00
H536   H     0.03082   0.64835   0.44904   0.00000  Uiso   1.00
H537   H     0.20467   0.46134   0.26595   0.00000  Uiso   1.00
H538   H     0.30912   0.49759   0.24421   0.00000  Uiso   1.00
H539   H     0.15201   0.42595   0.17725   0.00000  Uiso   1.00
H540   H     0.15941   0.44136   0.38140   0.00000  Uiso   1.00
H541   H     0.41460   0.56792   0.21214   0.00000  Uiso   1.00
H542   H     0.08330   0.41686   0.07097   0.00000  Uiso   1.00
H543   H     0.09891   0.44937   0.50146   0.00000  Uiso   1.00
O544   O     0.44783   0.69544   0.17050   0.00000  Uiso   1.00
O545   O     0.01317   0.49725   0.98530   0.00000  Uiso   1.00
O546   O     0.03365   0.53991   0.55009   0.00000  Uiso   1.00
N547   N     0.34820   0.71510   0.17505   0.00000  Uiso   1.00
N548   N     0.03846   0.57387   0.04306   0.00000  Uiso   1.00
N549   N     0.05304   0.60426   0.44552   0.00000  Uiso   1.00
N550   N     0.38484   0.60803   0.20326   0.00000  Uiso   1.00
N551   N     0.07510   0.46680   0.07127   0.00000  Uiso   1.00
N552   N     0.08968   0.49719   0.47373   0.00000  Uiso   1.00
