data_job_02559
_audit_creation_date              2018-12-19
_audit_creation_method            'Materials Studio'
_symmetry_space_group_name_H-M    'P1'
_symmetry_Int_Tables_number       1
_symmetry_cell_setting            triclinic
loop_
_symmetry_equiv_pos_as_xyz
  x,y,z
_cell_length_a                    17.8260
_cell_length_b                    10.8692
_cell_length_c                    28.1966
_cell_angle_alpha                 90.0000
_cell_angle_beta                  134.3617
_cell_angle_gamma                 90.0000
loop_
_atom_site_label
_atom_site_type_symbol
_atom_site_fract_x
_atom_site_fract_y
_atom_site_fract_z
_atom_site_U_iso_or_equiv
_atom_site_adp_type
_atom_site_occupancy
C1     C     0.51440   0.25963   0.14756   0.00000  Uiso   1.00
C2     C     0.51069   0.12131   0.15481   0.00000  Uiso   1.00
C3     C     0.58275   0.05445   0.21307   0.00000  Uiso   1.00
C4     C     0.56553   0.92873   0.20940   0.00000  Uiso   1.00
C5     C     0.57285   0.72259   0.22977   0.00000  Uiso   1.00
C6     C     0.40974   0.31035   0.11876   0.00000  Uiso   1.00
C7     C     0.39694   0.40244   0.14671   0.00000  Uiso   1.00
C8     C     0.29473   0.43588   0.11269   0.00000  Uiso   1.00
C9     C     0.14534   0.52329   0.07706   0.00000  Uiso   1.00
C10    C     0.51396   0.27573   0.09364   0.00000  Uiso   1.00
C11    C     0.58878   0.33873   0.10045   0.00000  Uiso   1.00
C12    C     0.57430   0.34303   0.04528   0.00000  Uiso   1.00
C13    C     0.58673   0.37667   0.97065   0.00000  Uiso   1.00
C14    C     0.35565   0.15528   0.03745   0.00000  Uiso   1.00
C15    C     0.42446   0.06464   0.09500   0.00000  Uiso   1.00
C16    C     0.40712   0.93899   0.09124   0.00000  Uiso   1.00
C17    C     0.47915   0.87195   0.14949   0.00000  Uiso   1.00
C18    C     0.32352   0.25368   0.05896   0.00000  Uiso   1.00
C19    C     0.22130   0.28699   0.02488   0.00000  Uiso   1.00
C20    C     0.20835   0.37910   0.05277   0.00000  Uiso   1.00
C21    C     0.42774   0.21905   0.03383   0.00000  Uiso   1.00
C22    C     0.41314   0.22326   0.97863   0.00000  Uiso   1.00
C23    C     0.48792   0.28625   0.98536   0.00000  Uiso   1.00
H24    H     0.58152   0.30377   0.19412   0.00000  Uiso   1.00
H25    H     0.64947   0.09834   0.25934   0.00000  Uiso   1.00
H26    H     0.46368   0.44630   0.19298   0.00000  Uiso   1.00
H27    H     0.65549   0.38258   0.14674   0.00000  Uiso   1.00
H28    H     0.68675   0.84561   0.30529   0.00000  Uiso   1.00
H29    H     0.29501   0.57931   0.16536   0.00000  Uiso   1.00
H30    H     0.69948   0.44496   0.06785   0.00000  Uiso   1.00
H31    H     0.28851   0.11116   0.99088   0.00000  Uiso   1.00
H32    H     0.34038   0.89516   0.04496   0.00000  Uiso   1.00
H33    H     0.15460   0.24311   0.97860   0.00000  Uiso   1.00
H34    H     0.34640   0.17939   0.93236   0.00000  Uiso   1.00
H35    H     0.43589   0.68069   0.13128   0.00000  Uiso   1.00
H36    H     0.04415   0.41440   0.99136   0.00000  Uiso   1.00
H37    H     0.44861   0.28004   0.89384   0.00000  Uiso   1.00
O38    O     0.60071   0.62454   0.25753   0.00000  Uiso   1.00
O39    O     0.08677   0.58715   0.07394   0.00000  Uiso   1.00
O40    O     0.61742   0.41087   0.94601   0.00000  Uiso   1.00
N41    N     0.62060   0.83643   0.25691   0.00000  Uiso   1.00
N42    N     0.25435   0.52239   0.12609   0.00000  Uiso   1.00
N43    N     0.63248   0.39681   0.03492   0.00000  Uiso   1.00
N44    N     0.48562   0.74769   0.16328   0.00000  Uiso   1.00
N45    N     0.11936   0.43365   0.03246   0.00000  Uiso   1.00
N46    N     0.49749   0.30807   0.94129   0.00000  Uiso   1.00
C47    C     0.48560   0.25963   0.35244   0.00000  Uiso   1.00
C48    C     0.48931   0.12131   0.34519   0.00000  Uiso   1.00
C49    C     0.41725   0.05445   0.28693   0.00000  Uiso   1.00
C50    C     0.43447   0.92873   0.29060   0.00000  Uiso   1.00
C51    C     0.42715   0.72259   0.27023   0.00000  Uiso   1.00
C52    C     0.59026   0.31035   0.38124   0.00000  Uiso   1.00
C53    C     0.60306   0.40244   0.35329   0.00000  Uiso   1.00
C54    C     0.70527   0.43588   0.38731   0.00000  Uiso   1.00
C55    C     0.85466   0.52329   0.42294   0.00000  Uiso   1.00
C56    C     0.48604   0.27573   0.40636   0.00000  Uiso   1.00
C57    C     0.41122   0.33873   0.39955   0.00000  Uiso   1.00
C58    C     0.42570   0.34303   0.45472   0.00000  Uiso   1.00
C59    C     0.41327   0.37667   0.52935   0.00000  Uiso   1.00
C60    C     0.64435   0.15528   0.46255   0.00000  Uiso   1.00
C61    C     0.57554   0.06464   0.40500   0.00000  Uiso   1.00
C62    C     0.59288   0.93899   0.40876   0.00000  Uiso   1.00
C63    C     0.52085   0.87195   0.35051   0.00000  Uiso   1.00
C64    C     0.67648   0.25368   0.44104   0.00000  Uiso   1.00
C65    C     0.77870   0.28699   0.47512   0.00000  Uiso   1.00
C66    C     0.79165   0.37910   0.44723   0.00000  Uiso   1.00
C67    C     0.57226   0.21905   0.46617   0.00000  Uiso   1.00
C68    C     0.58686   0.22326   0.52137   0.00000  Uiso   1.00
C69    C     0.51208   0.28625   0.51464   0.00000  Uiso   1.00
H70    H     0.41848   0.30377   0.30588   0.00000  Uiso   1.00
H71    H     0.35053   0.09834   0.24066   0.00000  Uiso   1.00
H72    H     0.53632   0.44630   0.30702   0.00000  Uiso   1.00
H73    H     0.34451   0.38258   0.35326   0.00000  Uiso   1.00
H74    H     0.31325   0.84561   0.19471   0.00000  Uiso   1.00
H75    H     0.70499   0.57931   0.33464   0.00000  Uiso   1.00
H76    H     0.30052   0.44496   0.43215   0.00000  Uiso   1.00
H77    H     0.71149   0.11116   0.50912   0.00000  Uiso   1.00
H78    H     0.65962   0.89516   0.45504   0.00000  Uiso   1.00
H79    H     0.84540   0.24311   0.52140   0.00000  Uiso   1.00
H80    H     0.65360   0.17939   0.56764   0.00000  Uiso   1.00
H81    H     0.56411   0.68069   0.36872   0.00000  Uiso   1.00
H82    H     0.95585   0.41440   0.50864   0.00000  Uiso   1.00
H83    H     0.55139   0.28004   0.60616   0.00000  Uiso   1.00
O84    O     0.39929   0.62454   0.24247   0.00000  Uiso   1.00
O85    O     0.91323   0.58715   0.42606   0.00000  Uiso   1.00
O86    O     0.38258   0.41087   0.55399   0.00000  Uiso   1.00
N87    N     0.37940   0.83643   0.24309   0.00000  Uiso   1.00
N88    N     0.74565   0.52239   0.37391   0.00000  Uiso   1.00
N89    N     0.36752   0.39681   0.46508   0.00000  Uiso   1.00
N90    N     0.51438   0.74769   0.33672   0.00000  Uiso   1.00
N91    N     0.88064   0.43365   0.46754   0.00000  Uiso   1.00
N92    N     0.50251   0.30807   0.55871   0.00000  Uiso   1.00
C93    C     0.48560   0.74037   0.85244   0.00000  Uiso   1.00
C94    C     0.48931   0.87869   0.84519   0.00000  Uiso   1.00
C95    C     0.41725   0.94555   0.78693   0.00000  Uiso   1.00
C96    C     0.43447   0.07127   0.79060   0.00000  Uiso   1.00
C97    C     0.42715   0.27741   0.77023   0.00000  Uiso   1.00
C98    C     0.59026   0.68965   0.88124   0.00000  Uiso   1.00
C99    C     0.60306   0.59756   0.85329   0.00000  Uiso   1.00
C100   C     0.70527   0.56412   0.88731   0.00000  Uiso   1.00
C101   C     0.85466   0.47671   0.92294   0.00000  Uiso   1.00
C102   C     0.48604   0.72427   0.90636   0.00000  Uiso   1.00
C103   C     0.41122   0.66127   0.89955   0.00000  Uiso   1.00
C104   C     0.42570   0.65697   0.95472   0.00000  Uiso   1.00
C105   C     0.41327   0.62333   0.02935   0.00000  Uiso   1.00
C106   C     0.64435   0.84472   0.96255   0.00000  Uiso   1.00
C107   C     0.57554   0.93536   0.90500   0.00000  Uiso   1.00
C108   C     0.59288   0.06101   0.90876   0.00000  Uiso   1.00
C109   C     0.52085   0.12805   0.85051   0.00000  Uiso   1.00
C110   C     0.67648   0.74632   0.94104   0.00000  Uiso   1.00
C111   C     0.77870   0.71301   0.97512   0.00000  Uiso   1.00
C112   C     0.79165   0.62090   0.94723   0.00000  Uiso   1.00
C113   C     0.57226   0.78095   0.96617   0.00000  Uiso   1.00
C114   C     0.58686   0.77674   0.02137   0.00000  Uiso   1.00
C115   C     0.51208   0.71375   0.01464   0.00000  Uiso   1.00
H116   H     0.41848   0.69623   0.80588   0.00000  Uiso   1.00
H117   H     0.35053   0.90166   0.74066   0.00000  Uiso   1.00
H118   H     0.53632   0.55370   0.80702   0.00000  Uiso   1.00
H119   H     0.34451   0.61742   0.85326   0.00000  Uiso   1.00
H120   H     0.31325   0.15439   0.69471   0.00000  Uiso   1.00
H121   H     0.70499   0.42069   0.83464   0.00000  Uiso   1.00
H122   H     0.30052   0.55504   0.93215   0.00000  Uiso   1.00
H123   H     0.71149   0.88884   0.00912   0.00000  Uiso   1.00
H124   H     0.65962   0.10484   0.95504   0.00000  Uiso   1.00
H125   H     0.84540   0.75689   0.02140   0.00000  Uiso   1.00
H126   H     0.65360   0.82061   0.06764   0.00000  Uiso   1.00
H127   H     0.56411   0.31931   0.86872   0.00000  Uiso   1.00
H128   H     0.95585   0.58560   0.00864   0.00000  Uiso   1.00
H129   H     0.55139   0.71996   0.10616   0.00000  Uiso   1.00
O130   O     0.39929   0.37546   0.74247   0.00000  Uiso   1.00
O131   O     0.91323   0.41285   0.92606   0.00000  Uiso   1.00
O132   O     0.38258   0.58913   0.05399   0.00000  Uiso   1.00
N133   N     0.37940   0.16357   0.74309   0.00000  Uiso   1.00
N134   N     0.74565   0.47761   0.87391   0.00000  Uiso   1.00
N135   N     0.36752   0.60319   0.96508   0.00000  Uiso   1.00
N136   N     0.51438   0.25231   0.83672   0.00000  Uiso   1.00
N137   N     0.88064   0.56635   0.96754   0.00000  Uiso   1.00
N138   N     0.50251   0.69193   0.05871   0.00000  Uiso   1.00
C139   C     0.51440   0.74037   0.64756   0.00000  Uiso   1.00
C140   C     0.51069   0.87869   0.65481   0.00000  Uiso   1.00
C141   C     0.58275   0.94555   0.71307   0.00000  Uiso   1.00
C142   C     0.56553   0.07127   0.70940   0.00000  Uiso   1.00
C143   C     0.57285   0.27741   0.72977   0.00000  Uiso   1.00
C144   C     0.40974   0.68965   0.61876   0.00000  Uiso   1.00
C145   C     0.39694   0.59756   0.64671   0.00000  Uiso   1.00
C146   C     0.29473   0.56412   0.61269   0.00000  Uiso   1.00
C147   C     0.14534   0.47671   0.57706   0.00000  Uiso   1.00
C148   C     0.51396   0.72427   0.59364   0.00000  Uiso   1.00
C149   C     0.58878   0.66127   0.60045   0.00000  Uiso   1.00
C150   C     0.57430   0.65697   0.54528   0.00000  Uiso   1.00
C151   C     0.58673   0.62333   0.47065   0.00000  Uiso   1.00
C152   C     0.35565   0.84472   0.53745   0.00000  Uiso   1.00
C153   C     0.42446   0.93536   0.59500   0.00000  Uiso   1.00
C154   C     0.40712   0.06101   0.59124   0.00000  Uiso   1.00
C155   C     0.47915   0.12805   0.64949   0.00000  Uiso   1.00
C156   C     0.32352   0.74632   0.55896   0.00000  Uiso   1.00
C157   C     0.22130   0.71301   0.52488   0.00000  Uiso   1.00
C158   C     0.20835   0.62090   0.55277   0.00000  Uiso   1.00
C159   C     0.42774   0.78095   0.53383   0.00000  Uiso   1.00
C160   C     0.41314   0.77674   0.47863   0.00000  Uiso   1.00
C161   C     0.48792   0.71375   0.48536   0.00000  Uiso   1.00
H162   H     0.58152   0.69623   0.69412   0.00000  Uiso   1.00
H163   H     0.64947   0.90166   0.75934   0.00000  Uiso   1.00
H164   H     0.46368   0.55370   0.69298   0.00000  Uiso   1.00
H165   H     0.65549   0.61742   0.64674   0.00000  Uiso   1.00
H166   H     0.68675   0.15439   0.80529   0.00000  Uiso   1.00
H167   H     0.29501   0.42069   0.66536   0.00000  Uiso   1.00
H168   H     0.69948   0.55504   0.56785   0.00000  Uiso   1.00
H169   H     0.28851   0.88884   0.49088   0.00000  Uiso   1.00
H170   H     0.34038   0.10484   0.54496   0.00000  Uiso   1.00
H171   H     0.15460   0.75689   0.47860   0.00000  Uiso   1.00
H172   H     0.34640   0.82061   0.43236   0.00000  Uiso   1.00
H173   H     0.43589   0.31931   0.63128   0.00000  Uiso   1.00
H174   H     0.04415   0.58560   0.49136   0.00000  Uiso   1.00
H175   H     0.44861   0.71996   0.39384   0.00000  Uiso   1.00
O176   O     0.60071   0.37546   0.75753   0.00000  Uiso   1.00
O177   O     0.08677   0.41285   0.57394   0.00000  Uiso   1.00
O178   O     0.61742   0.58913   0.44601   0.00000  Uiso   1.00
N179   N     0.62060   0.16357   0.75691   0.00000  Uiso   1.00
N180   N     0.25435   0.47761   0.62609   0.00000  Uiso   1.00
N181   N     0.63248   0.60319   0.53492   0.00000  Uiso   1.00
N182   N     0.48562   0.25231   0.66328   0.00000  Uiso   1.00
N183   N     0.11936   0.56635   0.53246   0.00000  Uiso   1.00
N184   N     0.49749   0.69193   0.44129   0.00000  Uiso   1.00
