data_job_05940
_audit_creation_date              2018-12-19
_audit_creation_method            'Materials Studio'
_symmetry_space_group_name_H-M    'P1'
_symmetry_Int_Tables_number       1
_symmetry_cell_setting            triclinic
loop_
_symmetry_equiv_pos_as_xyz
  x,y,z
_cell_length_a                    7.8462
_cell_length_b                    24.0827
_cell_length_c                    24.7955
_cell_angle_alpha                 118.6150
_cell_angle_beta                  81.0629
_cell_angle_gamma                 90.1031
loop_
_atom_site_label
_atom_site_type_symbol
_atom_site_fract_x
_atom_site_fract_y
_atom_site_fract_z
_atom_site_U_iso_or_equiv
_atom_site_adp_type
_atom_site_occupancy
C1     C     0.22805   0.35412   0.15253   0.00000  Uiso   1.00
C2     C     0.18693   0.28698   0.10861   0.00000  Uiso   1.00
C3     C     0.30759   0.23666   0.06744   0.00000  Uiso   1.00
C4     C     0.24386   0.17899   0.03126   0.00000  Uiso   1.00
C5     C     0.20708   0.07581   0.96230   0.00000  Uiso   1.00
C6     C     0.13036   0.39796   0.13718   0.00000  Uiso   1.00
C7     C     0.20346   0.44096   0.12004   0.00000  Uiso   1.00
C8     C     0.09211   0.47672   0.10791   0.00000  Uiso   1.00
C9     C     0.96749   0.54588   0.08336   0.00000  Uiso   1.00
C10    C     0.14227   0.36855   0.21792   0.00000  Uiso   1.00
C11    C     0.22537   0.38684   0.26868   0.00000  Uiso   1.00
C12    C     0.12404   0.39785   0.32454   0.00000  Uiso   1.00
C13    C     0.01791   0.42135   0.42535   0.00000  Uiso   1.00
C14    C     0.90031   0.34117   0.16149   0.00000  Uiso   1.00
C15    C     0.00891   0.27994   0.11348   0.00000  Uiso   1.00
C16    C     0.94498   0.22233   0.07735   0.00000  Uiso   1.00
C17    C     0.06553   0.17194   0.03613   0.00000  Uiso   1.00
C18    C     0.95235   0.39092   0.14205   0.00000  Uiso   1.00
C19    C     0.84086   0.42663   0.12995   0.00000  Uiso   1.00
C20    C     0.91377   0.46967   0.11279   0.00000  Uiso   1.00
C21    C     0.96425   0.36151   0.22279   0.00000  Uiso   1.00
C22    C     0.86277   0.37250   0.27859   0.00000  Uiso   1.00
C23    C     0.94570   0.39080   0.32941   0.00000  Uiso   1.00
H24    H     0.36664   0.35960   0.14874   0.00000  Uiso   1.00
H25    H     0.44534   0.24213   0.06368   0.00000  Uiso   1.00
H26    H     0.34122   0.44640   0.11628   0.00000  Uiso   1.00
H27    H     0.36313   0.39228   0.26489   0.00000  Uiso   1.00
H28    H     0.45408   0.10879   0.97151   0.00000  Uiso   1.00
H29    H     0.23455   0.53952   0.08244   0.00000  Uiso   1.00
H30    H     0.28074   0.42541   0.39582   0.00000  Uiso   1.00
H31    H     0.76171   0.33569   0.16528   0.00000  Uiso   1.00
H32    H     0.80721   0.21690   0.08113   0.00000  Uiso   1.00
H33    H     0.70310   0.42117   0.13373   0.00000  Uiso   1.00
H34    H     0.72501   0.36705   0.28234   0.00000  Uiso   1.00
H35    H     0.93616   0.08831   0.98567   0.00000  Uiso   1.00
H36    H     0.71662   0.51905   0.09660   0.00000  Uiso   1.00
H37    H     0.76282   0.40493   0.40998   0.00000  Uiso   1.00
O38    O     0.23597   0.02084   0.92292   0.00000  Uiso   1.00
O39    O     0.94794   0.58596   0.06847   0.00000  Uiso   1.00
O40    O     0.00856   0.43624   0.47961   0.00000  Uiso   1.00
N41    N     0.32595   0.12027   0.98640   0.00000  Uiso   1.00
N42    N     0.12070   0.52297   0.09010   0.00000  Uiso   1.00
N43    N     0.16388   0.41630   0.38309   0.00000  Uiso   1.00
N44    N     0.04725   0.10925   0.99402   0.00000  Uiso   1.00
N45    N     0.84201   0.51196   0.09772   0.00000  Uiso   1.00
N46    N     0.88519   0.40528   0.39071   0.00000  Uiso   1.00
C47    C     0.38649   0.85120   0.20076   0.00000  Uiso   1.00
C48    C     0.31294   0.89486   0.17985   0.00000  Uiso   1.00
C49    C     0.40161   0.93954   0.16915   0.00000  Uiso   1.00
C50    C     0.31147   0.97482   0.15026   0.00000  Uiso   1.00
C51    C     0.22350   0.04402   0.11901   0.00000  Uiso   1.00
C52    C     0.26614   0.86345   0.26058   0.00000  Uiso   1.00
C53    C     0.31546   0.88172   0.31777   0.00000  Uiso   1.00
C54    C     0.18592   0.89055   0.36684   0.00000  Uiso   1.00
C55    C     0.02531   0.91096   0.46092   0.00000  Uiso   1.00
C56    C     0.36262   0.78375   0.15191   0.00000  Uiso   1.00
C57    C     0.49306   0.73500   0.11774   0.00000  Uiso   1.00
C58    C     0.44474   0.67672   0.07533   0.00000  Uiso   1.00
C59    C     0.43393   0.57339   0.00068   0.00000  Uiso   1.00
C60    C     0.06873   0.83438   0.18624   0.00000  Uiso   1.00
C61    C     0.14034   0.88572   0.17196   0.00000  Uiso   1.00
C62    C     0.05005   0.92094   0.15307   0.00000  Uiso   1.00
C63    C     0.13857   0.96566   0.14235   0.00000  Uiso   1.00
C64    C     0.09355   0.85432   0.25269   0.00000  Uiso   1.00
C65    C     0.96390   0.86312   0.30169   0.00000  Uiso   1.00
C66    C     0.01302   0.88140   0.35893   0.00000  Uiso   1.00
C67    C     0.19003   0.77462   0.14402   0.00000  Uiso   1.00
C68    C     0.14149   0.71640   0.10166   0.00000  Uiso   1.00
C69    C     0.27183   0.66757   0.06742   0.00000  Uiso   1.00
H70    H     0.52085   0.85831   0.20691   0.00000  Uiso   1.00
H71    H     0.53517   0.94660   0.17527   0.00000  Uiso   1.00
H72    H     0.44904   0.88878   0.32385   0.00000  Uiso   1.00
H73    H     0.62660   0.74209   0.12385   0.00000  Uiso   1.00
H74    H     0.47491   0.04048   0.13672   0.00000  Uiso   1.00
H75    H     0.29331   0.91854   0.45003   0.00000  Uiso   1.00
H76    H     0.66774   0.60921   0.02829   0.00000  Uiso   1.00
H77    H     0.93435   0.82727   0.18009   0.00000  Uiso   1.00
H78    H     0.91648   0.91386   0.14697   0.00000  Uiso   1.00
H79    H     0.83036   0.85604   0.29557   0.00000  Uiso   1.00
H80    H     0.00792   0.70935   0.09557   0.00000  Uiso   1.00
H81    H     0.97276   0.01391   0.11376   0.00000  Uiso   1.00
H82    H     0.79116   0.89197   0.42707   0.00000  Uiso   1.00
H83    H     0.16559   0.58264   0.00533   0.00000  Uiso   1.00
O84    O     0.22265   0.08473   0.10396   0.00000  Uiso   1.00
O85    O     0.98441   0.92474   0.51500   0.00000  Uiso   1.00
O86    O     0.47565   0.51891   0.96169   0.00000  Uiso   1.00
N87    N     0.35919   0.02233   0.13585   0.00000  Uiso   1.00
N88    N     0.18940   0.90834   0.42878   0.00000  Uiso   1.00
N89    N     0.53946   0.61914   0.03450   0.00000  Uiso   1.00
N90    N     0.08899   0.00803   0.12350   0.00000  Uiso   1.00
N91    N     0.91920   0.89404   0.41642   0.00000  Uiso   1.00
N92    N     0.26926   0.60484   0.02214   0.00000  Uiso   1.00
C93    C     0.59369   0.80303   0.64700   0.00000  Uiso   1.00
C94    C     0.49208   0.82144   0.71165   0.00000  Uiso   1.00
C95    C     0.56311   0.83365   0.76376   0.00000  Uiso   1.00
C96    C     0.44824   0.84974   0.81861   0.00000  Uiso   1.00
C97    C     0.31777   0.87772   0.91860   0.00000  Uiso   1.00
C98    C     0.53000   0.74032   0.60229   0.00000  Uiso   1.00
C99    C     0.63291   0.68434   0.56244   0.00000  Uiso   1.00
C100   C     0.54995   0.63216   0.52522   0.00000  Uiso   1.00
C101   C     0.47836   0.53422   0.45539   0.00000  Uiso   1.00
C102   C     0.53263   0.85204   0.63031   0.00000  Uiso   1.00
C103   C     0.63775   0.88997   0.61401   0.00000  Uiso   1.00
C104   C     0.55702   0.93183   0.60036   0.00000  Uiso   1.00
C105   C     0.48951   0.00735   0.57403   0.00000  Uiso   1.00
C106   C     0.26340   0.80990   0.65174   0.00000  Uiso   1.00
C107   C     0.31268   0.82517   0.71422   0.00000  Uiso   1.00
C108   C     0.19768   0.84125   0.76901   0.00000  Uiso   1.00
C109   C     0.26852   0.85348   0.82119   0.00000  Uiso   1.00
C110   C     0.35061   0.74405   0.60486   0.00000  Uiso   1.00
C111   C     0.26748   0.69194   0.56769   0.00000  Uiso   1.00
C112   C     0.37023   0.63589   0.52780   0.00000  Uiso   1.00
C113   C     0.35323   0.85577   0.63288   0.00000  Uiso   1.00
C114   C     0.27232   0.89758   0.61925   0.00000  Uiso   1.00
C115   C     0.37729   0.93557   0.60294   0.00000  Uiso   1.00
H116   H     0.73336   0.80012   0.64500   0.00000  Uiso   1.00
H117   H     0.70195   0.83075   0.76175   0.00000  Uiso   1.00
H118   H     0.77173   0.68147   0.56046   0.00000  Uiso   1.00
H119   H     0.77657   0.88707   0.61202   0.00000  Uiso   1.00
H120   H     0.58801   0.86632   0.89233   0.00000  Uiso   1.00
H121   H     0.73517   0.55156   0.46787   0.00000  Uiso   1.00
H122   H     0.74538   0.98512   0.57660   0.00000  Uiso   1.00
H123   H     0.12372   0.81281   0.65374   0.00000  Uiso   1.00
H124   H     0.05886   0.84414   0.77098   0.00000  Uiso   1.00
H125   H     0.12865   0.69485   0.56969   0.00000  Uiso   1.00
H126   H     0.13349   0.90046   0.62125   0.00000  Uiso   1.00
H127   H     0.06606   0.87719   0.89982   0.00000  Uiso   1.00
H128   H     0.21322   0.56242   0.47536   0.00000  Uiso   1.00
H129   H     0.22342   0.99598   0.58409   0.00000  Uiso   1.00
O130   O     0.29537   0.89211   0.97303   0.00000  Uiso   1.00
O131   O     0.48844   0.47916   0.41616   0.00000  Uiso   1.00
O132   O     0.50183   0.04798   0.55881   0.00000  Uiso   1.00
N133   N     0.47407   0.86460   0.87800   0.00000  Uiso   1.00
N134   N     0.61165   0.57031   0.48117   0.00000  Uiso   1.00
N135   N     0.62121   0.97563   0.58280   0.00000  Uiso   1.00
N136   N     0.19321   0.87044   0.88204   0.00000  Uiso   1.00
N137   N     0.33079   0.57615   0.48521   0.00000  Uiso   1.00
N138   N     0.34034   0.98148   0.58684   0.00000  Uiso   1.00
C139   C     0.77195   0.64588   0.84747   0.00000  Uiso   1.00
C140   C     0.81307   0.71302   0.89139   0.00000  Uiso   1.00
C141   C     0.69241   0.76334   0.93256   0.00000  Uiso   1.00
C142   C     0.75614   0.82101   0.96874   0.00000  Uiso   1.00
C143   C     0.79292   0.92419   0.03770   0.00000  Uiso   1.00
C144   C     0.86964   0.60204   0.86282   0.00000  Uiso   1.00
C145   C     0.79654   0.55904   0.87996   0.00000  Uiso   1.00
C146   C     0.90789   0.52328   0.89209   0.00000  Uiso   1.00
C147   C     0.03251   0.45412   0.91664   0.00000  Uiso   1.00
C148   C     0.85773   0.63145   0.78208   0.00000  Uiso   1.00
C149   C     0.77463   0.61316   0.73132   0.00000  Uiso   1.00
C150   C     0.87596   0.60215   0.67546   0.00000  Uiso   1.00
C151   C     0.98209   0.57865   0.57465   0.00000  Uiso   1.00
C152   C     0.09969   0.65883   0.83851   0.00000  Uiso   1.00
C153   C     0.99109   0.72006   0.88652   0.00000  Uiso   1.00
C154   C     0.05502   0.77767   0.92265   0.00000  Uiso   1.00
C155   C     0.93447   0.82806   0.96387   0.00000  Uiso   1.00
C156   C     0.04765   0.60908   0.85795   0.00000  Uiso   1.00
C157   C     0.15914   0.57337   0.87005   0.00000  Uiso   1.00
C158   C     0.08623   0.53033   0.88721   0.00000  Uiso   1.00
C159   C     0.03575   0.63849   0.77721   0.00000  Uiso   1.00
C160   C     0.13723   0.62750   0.72141   0.00000  Uiso   1.00
C161   C     0.05430   0.60920   0.67059   0.00000  Uiso   1.00
H162   H     0.63336   0.64040   0.85126   0.00000  Uiso   1.00
H163   H     0.55466   0.75787   0.93632   0.00000  Uiso   1.00
H164   H     0.65878   0.55360   0.88372   0.00000  Uiso   1.00
H165   H     0.63687   0.60772   0.73511   0.00000  Uiso   1.00
H166   H     0.54592   0.89121   0.02849   0.00000  Uiso   1.00
H167   H     0.76545   0.46048   0.91756   0.00000  Uiso   1.00
H168   H     0.71926   0.57459   0.60418   0.00000  Uiso   1.00
H169   H     0.23829   0.66431   0.83472   0.00000  Uiso   1.00
H170   H     0.19279   0.78310   0.91887   0.00000  Uiso   1.00
H171   H     0.29690   0.57883   0.86627   0.00000  Uiso   1.00
H172   H     0.27499   0.63295   0.71766   0.00000  Uiso   1.00
H173   H     0.06384   0.91169   0.01433   0.00000  Uiso   1.00
H174   H     0.28338   0.48095   0.90340   0.00000  Uiso   1.00
H175   H     0.23718   0.59507   0.59002   0.00000  Uiso   1.00
O176   O     0.76403   0.97916   0.07708   0.00000  Uiso   1.00
O177   O     0.05206   0.41404   0.93153   0.00000  Uiso   1.00
O178   O     0.99144   0.56376   0.52039   0.00000  Uiso   1.00
N179   N     0.67405   0.87973   0.01360   0.00000  Uiso   1.00
N180   N     0.87930   0.47702   0.90990   0.00000  Uiso   1.00
N181   N     0.83612   0.58370   0.61691   0.00000  Uiso   1.00
N182   N     0.95275   0.89075   0.00598   0.00000  Uiso   1.00
N183   N     0.15799   0.48804   0.90228   0.00000  Uiso   1.00
N184   N     0.11481   0.59472   0.60929   0.00000  Uiso   1.00
C185   C     0.61351   0.14880   0.79924   0.00000  Uiso   1.00
C186   C     0.68706   0.10514   0.82015   0.00000  Uiso   1.00
C187   C     0.59839   0.06046   0.83085   0.00000  Uiso   1.00
C188   C     0.68853   0.02518   0.84974   0.00000  Uiso   1.00
C189   C     0.77650   0.95598   0.88099   0.00000  Uiso   1.00
C190   C     0.73386   0.13655   0.73942   0.00000  Uiso   1.00
C191   C     0.68454   0.11828   0.68223   0.00000  Uiso   1.00
C192   C     0.81408   0.10945   0.63316   0.00000  Uiso   1.00
C193   C     0.97469   0.08904   0.53908   0.00000  Uiso   1.00
C194   C     0.63738   0.21625   0.84809   0.00000  Uiso   1.00
C195   C     0.50694   0.26500   0.88226   0.00000  Uiso   1.00
C196   C     0.55526   0.32328   0.92467   0.00000  Uiso   1.00
C197   C     0.56607   0.42661   0.99932   0.00000  Uiso   1.00
C198   C     0.93127   0.16562   0.81376   0.00000  Uiso   1.00
C199   C     0.85966   0.11428   0.82804   0.00000  Uiso   1.00
C200   C     0.94995   0.07906   0.84693   0.00000  Uiso   1.00
C201   C     0.86143   0.03434   0.85765   0.00000  Uiso   1.00
C202   C     0.90645   0.14568   0.74731   0.00000  Uiso   1.00
C203   C     0.03610   0.13688   0.69831   0.00000  Uiso   1.00
C204   C     0.98698   0.11860   0.64107   0.00000  Uiso   1.00
C205   C     0.80997   0.22538   0.85598   0.00000  Uiso   1.00
C206   C     0.85851   0.28360   0.89834   0.00000  Uiso   1.00
C207   C     0.72817   0.33243   0.93258   0.00000  Uiso   1.00
H208   H     0.47915   0.14169   0.79309   0.00000  Uiso   1.00
H209   H     0.46483   0.05340   0.82473   0.00000  Uiso   1.00
H210   H     0.55096   0.11122   0.67615   0.00000  Uiso   1.00
H211   H     0.37340   0.25791   0.87615   0.00000  Uiso   1.00
H212   H     0.52509   0.95952   0.86328   0.00000  Uiso   1.00
H213   H     0.70669   0.08145   0.54997   0.00000  Uiso   1.00
H214   H     0.33226   0.39079   0.97171   0.00000  Uiso   1.00
H215   H     0.06565   0.17273   0.81991   0.00000  Uiso   1.00
H216   H     0.08352   0.08614   0.85303   0.00000  Uiso   1.00
H217   H     0.16964   0.14396   0.70443   0.00000  Uiso   1.00
H218   H     0.99208   0.29065   0.90443   0.00000  Uiso   1.00
H219   H     0.02724   0.98609   0.88624   0.00000  Uiso   1.00
H220   H     0.20884   0.10803   0.57293   0.00000  Uiso   1.00
H221   H     0.83441   0.41736   0.99467   0.00000  Uiso   1.00
O222   O     0.77735   0.91527   0.89604   0.00000  Uiso   1.00
O223   O     0.01559   0.07526   0.48500   0.00000  Uiso   1.00
O224   O     0.52435   0.48109   0.03831   0.00000  Uiso   1.00
N225   N     0.64081   0.97767   0.86415   0.00000  Uiso   1.00
N226   N     0.81060   0.09166   0.57122   0.00000  Uiso   1.00
N227   N     0.46054   0.38086   0.96550   0.00000  Uiso   1.00
N228   N     0.91101   0.99197   0.87650   0.00000  Uiso   1.00
N229   N     0.08080   0.10596   0.58358   0.00000  Uiso   1.00
N230   N     0.73075   0.39516   0.97786   0.00000  Uiso   1.00
C231   C     0.40631   0.19697   0.35300   0.00000  Uiso   1.00
C232   C     0.50792   0.17856   0.28835   0.00000  Uiso   1.00
C233   C     0.43689   0.16635   0.23624   0.00000  Uiso   1.00
C234   C     0.55176   0.15026   0.18139   0.00000  Uiso   1.00
C235   C     0.68223   0.12228   0.08141   0.00000  Uiso   1.00
C236   C     0.47000   0.25968   0.39771   0.00000  Uiso   1.00
C237   C     0.36709   0.31566   0.43756   0.00000  Uiso   1.00
C238   C     0.45005   0.36784   0.47478   0.00000  Uiso   1.00
C239   C     0.52164   0.46578   0.54461   0.00000  Uiso   1.00
C240   C     0.46737   0.14796   0.36969   0.00000  Uiso   1.00
C241   C     0.36225   0.11003   0.38599   0.00000  Uiso   1.00
C242   C     0.44298   0.06817   0.39964   0.00000  Uiso   1.00
C243   C     0.51049   0.99265   0.42597   0.00000  Uiso   1.00
C244   C     0.73660   0.19010   0.34826   0.00000  Uiso   1.00
C245   C     0.68731   0.17483   0.28578   0.00000  Uiso   1.00
C246   C     0.80232   0.15875   0.23099   0.00000  Uiso   1.00
C247   C     0.73148   0.14652   0.17881   0.00000  Uiso   1.00
C248   C     0.64939   0.25595   0.39514   0.00000  Uiso   1.00
C249   C     0.73252   0.30806   0.43231   0.00000  Uiso   1.00
C250   C     0.62977   0.36411   0.47220   0.00000  Uiso   1.00
C251   C     0.64677   0.14423   0.36712   0.00000  Uiso   1.00
C252   C     0.72768   0.10242   0.38075   0.00000  Uiso   1.00
C253   C     0.62271   0.06443   0.39706   0.00000  Uiso   1.00
H254   H     0.26664   0.19988   0.35500   0.00000  Uiso   1.00
H255   H     0.29805   0.16925   0.23825   0.00000  Uiso   1.00
H256   H     0.22827   0.31853   0.43954   0.00000  Uiso   1.00
H257   H     0.22343   0.11293   0.38798   0.00000  Uiso   1.00
H258   H     0.41199   0.13368   0.10767   0.00000  Uiso   1.00
H259   H     0.26483   0.44844   0.53213   0.00000  Uiso   1.00
H260   H     0.25462   0.01488   0.42340   0.00000  Uiso   1.00
H261   H     0.87628   0.18719   0.34626   0.00000  Uiso   1.00
H262   H     0.94114   0.15586   0.22902   0.00000  Uiso   1.00
H263   H     0.87135   0.30515   0.43031   0.00000  Uiso   1.00
H264   H     0.86651   0.09954   0.37875   0.00000  Uiso   1.00
H265   H     0.93394   0.12281   0.10018   0.00000  Uiso   1.00
H266   H     0.78678   0.43758   0.52464   0.00000  Uiso   1.00
H267   H     0.77658   0.00402   0.41591   0.00000  Uiso   1.00
O268   O     0.70463   0.10789   0.02697   0.00000  Uiso   1.00
O269   O     0.51156   0.52084   0.58384   0.00000  Uiso   1.00
O270   O     0.49817   0.95202   0.44119   0.00000  Uiso   1.00
N271   N     0.52593   0.13540   0.12200   0.00000  Uiso   1.00
N272   N     0.38835   0.42969   0.51883   0.00000  Uiso   1.00
N273   N     0.37879   0.02437   0.41720   0.00000  Uiso   1.00
N274   N     0.80679   0.12956   0.11796   0.00000  Uiso   1.00
N275   N     0.66921   0.42385   0.51480   0.00000  Uiso   1.00
N276   N     0.65966   0.01852   0.41316   0.00000  Uiso   1.00
