data_job_01915
_audit_creation_date              2018-12-19
_audit_creation_method            'Materials Studio'
_symmetry_space_group_name_H-M    'P1'
_symmetry_Int_Tables_number       1
_symmetry_cell_setting            triclinic
loop_
_symmetry_equiv_pos_as_xyz
  x,y,z
_cell_length_a                    7.4972
_cell_length_b                    18.3979
_cell_length_c                    21.9747
_cell_angle_alpha                 90.0000
_cell_angle_beta                  115.2992
_cell_angle_gamma                 90.0000
loop_
_atom_site_label
_atom_site_type_symbol
_atom_site_fract_x
_atom_site_fract_y
_atom_site_fract_z
_atom_site_U_iso_or_equiv
_atom_site_adp_type
_atom_site_occupancy
C1     C     0.34139   0.54377   0.67986   0.00000  Uiso   1.00
C2     C     0.14325   0.50500   0.65618   0.00000  Uiso   1.00
C3     C     0.09438   0.43946   0.62166   0.00000  Uiso   1.00
C4     C     0.90549   0.41301   0.60445   0.00000  Uiso   1.00
C5     C     0.61833   0.34709   0.56510   0.00000  Uiso   1.00
C6     C     0.29595   0.61959   0.64896   0.00000  Uiso   1.00
C7     C     0.37550   0.65040   0.60839   0.00000  Uiso   1.00
C8     C     0.31517   0.72042   0.58512   0.00000  Uiso   1.00
C9     C     0.26519   0.83242   0.53462   0.00000  Uiso   1.00
C10    C     0.41463   0.55438   0.75554   0.00000  Uiso   1.00
C11    C     0.59399   0.53038   0.80459   0.00000  Uiso   1.00
C12    C     0.63359   0.54551   0.87105   0.00000  Uiso   1.00
C13    C     0.76788   0.55626   0.98603   0.00000  Uiso   1.00
C14    C     0.09283   0.61333   0.71067   0.00000  Uiso   1.00
C15    C     0.00824   0.54279   0.67291   0.00000  Uiso   1.00
C16    C     0.81938   0.51643   0.65575   0.00000  Uiso   1.00
C17    C     0.77024   0.45086   0.62122   0.00000  Uiso   1.00
C18    C     0.16095   0.65738   0.66570   0.00000  Uiso   1.00
C19    C     0.10050   0.72737   0.64249   0.00000  Uiso   1.00
C20    C     0.17992   0.75827   0.60189   0.00000  Uiso   1.00
C21    C     0.27962   0.59217   0.77228   0.00000  Uiso   1.00
C22    C     0.31897   0.60734   0.83868   0.00000  Uiso   1.00
C23    C     0.49834   0.58337   0.88782   0.00000  Uiso   1.00
H24    H     0.44650   0.51435   0.66683   0.00000  Uiso   1.00
H25    H     0.19890   0.41024   0.60871   0.00000  Uiso   1.00
H26    H     0.47998   0.62115   0.59546   0.00000  Uiso   1.00
H27    H     0.69842   0.50114   0.79162   0.00000  Uiso   1.00
H28    H     0.86482   0.31149   0.55164   0.00000  Uiso   1.00
H29    H     0.45756   0.75621   0.52371   0.00000  Uiso   1.00
H30    H     0.91819   0.50315   0.93736   0.00000  Uiso   1.00
H31    H     0.98772   0.64276   0.72370   0.00000  Uiso   1.00
H32    H     0.71493   0.54568   0.66871   0.00000  Uiso   1.00
H33    H     0.99603   0.75659   0.65545   0.00000  Uiso   1.00
H34    H     0.21446   0.63659   0.85161   0.00000  Uiso   1.00
H35    H     0.47201   0.42142   0.60033   0.00000  Uiso   1.00
H36    H     0.06477   0.86614   0.57240   0.00000  Uiso   1.00
H37    H     0.52539   0.61309   0.98605   0.00000  Uiso   1.00
O38    O     0.49722   0.30030   0.53877   0.00000  Uiso   1.00
O39    O     0.27491   0.88375   0.50213   0.00000  Uiso   1.00
O40    O     0.87924   0.55175   0.04482   0.00000  Uiso   1.00
N41    N     0.80982   0.35068   0.57066   0.00000  Uiso   1.00
N42    N     0.36398   0.76646   0.54453   0.00000  Uiso   1.00
N43    N     0.79465   0.52989   0.93126   0.00000  Uiso   1.00
N44    N     0.59845   0.40983   0.59686   0.00000  Uiso   1.00
N45    N     0.15261   0.82561   0.57074   0.00000  Uiso   1.00
N46    N     0.58329   0.58904   0.95746   0.00000  Uiso   1.00
C47    C     0.65861   0.04377   0.82014   0.00000  Uiso   1.00
C48    C     0.85675   0.00500   0.84382   0.00000  Uiso   1.00
C49    C     0.90562   0.93946   0.87834   0.00000  Uiso   1.00
C50    C     0.09451   0.91301   0.89555   0.00000  Uiso   1.00
C51    C     0.38167   0.84709   0.93490   0.00000  Uiso   1.00
C52    C     0.70405   0.11959   0.85104   0.00000  Uiso   1.00
C53    C     0.62450   0.15040   0.89161   0.00000  Uiso   1.00
C54    C     0.68483   0.22042   0.91488   0.00000  Uiso   1.00
C55    C     0.73481   0.33242   0.96538   0.00000  Uiso   1.00
C56    C     0.58537   0.05438   0.74446   0.00000  Uiso   1.00
C57    C     0.40601   0.03038   0.69541   0.00000  Uiso   1.00
C58    C     0.36641   0.04551   0.62895   0.00000  Uiso   1.00
C59    C     0.23212   0.05626   0.51397   0.00000  Uiso   1.00
C60    C     0.90717   0.11333   0.78933   0.00000  Uiso   1.00
C61    C     0.99176   0.04279   0.82709   0.00000  Uiso   1.00
C62    C     0.18062   0.01643   0.84425   0.00000  Uiso   1.00
C63    C     0.22976   0.95086   0.87878   0.00000  Uiso   1.00
C64    C     0.83905   0.15738   0.83430   0.00000  Uiso   1.00
C65    C     0.89950   0.22737   0.85751   0.00000  Uiso   1.00
C66    C     0.82008   0.25827   0.89811   0.00000  Uiso   1.00
C67    C     0.72038   0.09217   0.72772   0.00000  Uiso   1.00
C68    C     0.68103   0.10734   0.66132   0.00000  Uiso   1.00
C69    C     0.50166   0.08337   0.61218   0.00000  Uiso   1.00
H70    H     0.55350   0.01435   0.83317   0.00000  Uiso   1.00
H71    H     0.80110   0.91024   0.89129   0.00000  Uiso   1.00
H72    H     0.52002   0.12115   0.90454   0.00000  Uiso   1.00
H73    H     0.30158   0.00114   0.70838   0.00000  Uiso   1.00
H74    H     0.13518   0.81149   0.94836   0.00000  Uiso   1.00
H75    H     0.54244   0.25621   0.97629   0.00000  Uiso   1.00
H76    H     0.08181   0.00315   0.56264   0.00000  Uiso   1.00
H77    H     0.01228   0.14276   0.77630   0.00000  Uiso   1.00
H78    H     0.28507   0.04568   0.83129   0.00000  Uiso   1.00
H79    H     0.00397   0.25659   0.84455   0.00000  Uiso   1.00
H80    H     0.78554   0.13659   0.64839   0.00000  Uiso   1.00
H81    H     0.52799   0.92142   0.89967   0.00000  Uiso   1.00
H82    H     0.93523   0.36614   0.92760   0.00000  Uiso   1.00
H83    H     0.47461   0.11309   0.51395   0.00000  Uiso   1.00
O84    O     0.50278   0.80030   0.96123   0.00000  Uiso   1.00
O85    O     0.72509   0.38375   0.99787   0.00000  Uiso   1.00
O86    O     0.12076   0.05175   0.45518   0.00000  Uiso   1.00
N87    N     0.19018   0.85068   0.92934   0.00000  Uiso   1.00
N88    N     0.63602   0.26646   0.95547   0.00000  Uiso   1.00
N89    N     0.20535   0.02989   0.56874   0.00000  Uiso   1.00
N90    N     0.40155   0.90983   0.90314   0.00000  Uiso   1.00
N91    N     0.84739   0.32561   0.92926   0.00000  Uiso   1.00
N92    N     0.41671   0.08904   0.54254   0.00000  Uiso   1.00
C93    C     0.65861   0.45623   0.32014   0.00000  Uiso   1.00
C94    C     0.85675   0.49500   0.34382   0.00000  Uiso   1.00
C95    C     0.90562   0.56054   0.37834   0.00000  Uiso   1.00
C96    C     0.09451   0.58699   0.39555   0.00000  Uiso   1.00
C97    C     0.38167   0.65291   0.43490   0.00000  Uiso   1.00
C98    C     0.70405   0.38041   0.35104   0.00000  Uiso   1.00
C99    C     0.62450   0.34960   0.39161   0.00000  Uiso   1.00
C100   C     0.68483   0.27958   0.41488   0.00000  Uiso   1.00
C101   C     0.73481   0.16758   0.46538   0.00000  Uiso   1.00
C102   C     0.58537   0.44562   0.24446   0.00000  Uiso   1.00
C103   C     0.40601   0.46962   0.19541   0.00000  Uiso   1.00
C104   C     0.36641   0.45449   0.12895   0.00000  Uiso   1.00
C105   C     0.23212   0.44374   0.01397   0.00000  Uiso   1.00
C106   C     0.90717   0.38667   0.28933   0.00000  Uiso   1.00
C107   C     0.99176   0.45721   0.32709   0.00000  Uiso   1.00
C108   C     0.18062   0.48357   0.34425   0.00000  Uiso   1.00
C109   C     0.22976   0.54914   0.37878   0.00000  Uiso   1.00
C110   C     0.83905   0.34262   0.33430   0.00000  Uiso   1.00
C111   C     0.89950   0.27263   0.35751   0.00000  Uiso   1.00
C112   C     0.82008   0.24173   0.39811   0.00000  Uiso   1.00
C113   C     0.72038   0.40783   0.22772   0.00000  Uiso   1.00
C114   C     0.68103   0.39266   0.16132   0.00000  Uiso   1.00
C115   C     0.50166   0.41663   0.11218   0.00000  Uiso   1.00
H116   H     0.55350   0.48565   0.33317   0.00000  Uiso   1.00
H117   H     0.80110   0.58976   0.39129   0.00000  Uiso   1.00
H118   H     0.52002   0.37885   0.40454   0.00000  Uiso   1.00
H119   H     0.30158   0.49886   0.20838   0.00000  Uiso   1.00
H120   H     0.13518   0.68851   0.44836   0.00000  Uiso   1.00
H121   H     0.54244   0.24379   0.47629   0.00000  Uiso   1.00
H122   H     0.08181   0.49685   0.06264   0.00000  Uiso   1.00
H123   H     0.01228   0.35724   0.27630   0.00000  Uiso   1.00
H124   H     0.28507   0.45432   0.33129   0.00000  Uiso   1.00
H125   H     0.00397   0.24341   0.34455   0.00000  Uiso   1.00
H126   H     0.78554   0.36341   0.14839   0.00000  Uiso   1.00
H127   H     0.52799   0.57858   0.39967   0.00000  Uiso   1.00
H128   H     0.93523   0.13386   0.42760   0.00000  Uiso   1.00
H129   H     0.47461   0.38691   0.01395   0.00000  Uiso   1.00
O130   O     0.50278   0.69970   0.46123   0.00000  Uiso   1.00
O131   O     0.72509   0.11625   0.49787   0.00000  Uiso   1.00
O132   O     0.12076   0.44825   0.95518   0.00000  Uiso   1.00
N133   N     0.19018   0.64932   0.42934   0.00000  Uiso   1.00
N134   N     0.63602   0.23354   0.45547   0.00000  Uiso   1.00
N135   N     0.20535   0.47011   0.06874   0.00000  Uiso   1.00
N136   N     0.40155   0.59017   0.40314   0.00000  Uiso   1.00
N137   N     0.84739   0.17439   0.42926   0.00000  Uiso   1.00
N138   N     0.41671   0.41096   0.04254   0.00000  Uiso   1.00
C139   C     0.34139   0.95623   0.17986   0.00000  Uiso   1.00
C140   C     0.14325   0.99500   0.15618   0.00000  Uiso   1.00
C141   C     0.09438   0.06054   0.12166   0.00000  Uiso   1.00
C142   C     0.90549   0.08699   0.10445   0.00000  Uiso   1.00
C143   C     0.61833   0.15291   0.06510   0.00000  Uiso   1.00
C144   C     0.29595   0.88041   0.14896   0.00000  Uiso   1.00
C145   C     0.37550   0.84960   0.10839   0.00000  Uiso   1.00
C146   C     0.31517   0.77958   0.08512   0.00000  Uiso   1.00
C147   C     0.26519   0.66758   0.03462   0.00000  Uiso   1.00
C148   C     0.41463   0.94562   0.25554   0.00000  Uiso   1.00
C149   C     0.59399   0.96962   0.30459   0.00000  Uiso   1.00
C150   C     0.63359   0.95449   0.37105   0.00000  Uiso   1.00
C151   C     0.76788   0.94374   0.48603   0.00000  Uiso   1.00
C152   C     0.09283   0.88667   0.21067   0.00000  Uiso   1.00
C153   C     0.00824   0.95721   0.17291   0.00000  Uiso   1.00
C154   C     0.81938   0.98357   0.15575   0.00000  Uiso   1.00
C155   C     0.77024   0.04914   0.12122   0.00000  Uiso   1.00
C156   C     0.16095   0.84262   0.16570   0.00000  Uiso   1.00
C157   C     0.10050   0.77263   0.14249   0.00000  Uiso   1.00
C158   C     0.17992   0.74173   0.10189   0.00000  Uiso   1.00
C159   C     0.27962   0.90783   0.27228   0.00000  Uiso   1.00
C160   C     0.31897   0.89266   0.33868   0.00000  Uiso   1.00
C161   C     0.49834   0.91663   0.38782   0.00000  Uiso   1.00
H162   H     0.44650   0.98565   0.16683   0.00000  Uiso   1.00
H163   H     0.19890   0.08976   0.10871   0.00000  Uiso   1.00
H164   H     0.47998   0.87885   0.09546   0.00000  Uiso   1.00
H165   H     0.69842   0.99886   0.29162   0.00000  Uiso   1.00
H166   H     0.86482   0.18851   0.05164   0.00000  Uiso   1.00
H167   H     0.45756   0.74379   0.02371   0.00000  Uiso   1.00
H168   H     0.91819   0.99685   0.43736   0.00000  Uiso   1.00
H169   H     0.98772   0.85724   0.22370   0.00000  Uiso   1.00
H170   H     0.71493   0.95432   0.16871   0.00000  Uiso   1.00
H171   H     0.99603   0.74341   0.15545   0.00000  Uiso   1.00
H172   H     0.21446   0.86341   0.35161   0.00000  Uiso   1.00
H173   H     0.47201   0.07858   0.10033   0.00000  Uiso   1.00
H174   H     0.06477   0.63386   0.07240   0.00000  Uiso   1.00
H175   H     0.52539   0.88691   0.48605   0.00000  Uiso   1.00
O176   O     0.49722   0.19970   0.03877   0.00000  Uiso   1.00
O177   O     0.27491   0.61625   0.00213   0.00000  Uiso   1.00
O178   O     0.87924   0.94825   0.54482   0.00000  Uiso   1.00
N179   N     0.80982   0.14932   0.07066   0.00000  Uiso   1.00
N180   N     0.36398   0.73354   0.04453   0.00000  Uiso   1.00
N181   N     0.79465   0.97011   0.43126   0.00000  Uiso   1.00
N182   N     0.59845   0.09017   0.09686   0.00000  Uiso   1.00
N183   N     0.15261   0.67439   0.07074   0.00000  Uiso   1.00
N184   N     0.58329   0.91096   0.45746   0.00000  Uiso   1.00
