data_job_03501
_audit_creation_date              2018-12-19
_audit_creation_method            'Materials Studio'
_symmetry_space_group_name_H-M    'P1'
_symmetry_Int_Tables_number       1
_symmetry_cell_setting            triclinic
loop_
_symmetry_equiv_pos_as_xyz
  x,y,z
_cell_length_a                    23.4448
_cell_length_b                    23.4448
_cell_length_c                    12.5574
_cell_angle_alpha                 90.0000
_cell_angle_beta                  90.0000
_cell_angle_gamma                 90.0000
loop_
_atom_site_label
_atom_site_type_symbol
_atom_site_fract_x
_atom_site_fract_y
_atom_site_fract_z
_atom_site_U_iso_or_equiv
_atom_site_adp_type
_atom_site_occupancy
C1     C     0.66912   0.50250   0.43521   0.00000  Uiso   1.00
C2     C     0.68568   0.55199   0.50772   0.00000  Uiso   1.00
C3     C     0.65611   0.56949   0.59770   0.00000  Uiso   1.00
C4     C     0.67820   0.61568   0.65329   0.00000  Uiso   1.00
C5     C     0.69630   0.68832   0.77090   0.00000  Uiso   1.00
C6     C     0.66394   0.52755   0.32356   0.00000  Uiso   1.00
C7     C     0.61610   0.52451   0.25871   0.00000  Uiso   1.00
C8     C     0.61989   0.55012   0.15927   0.00000  Uiso   1.00
C9     C     0.60427   0.58480   0.99095   0.00000  Uiso   1.00
C10    C     0.72065   0.46284   0.43234   0.00000  Uiso   1.00
C11    C     0.72049   0.40539   0.45893   0.00000  Uiso   1.00
C12    C     0.77202   0.37651   0.45105   0.00000  Uiso   1.00
C13    C     0.84444   0.31072   0.45163   0.00000  Uiso   1.00
C14    C     0.76092   0.55339   0.37391   0.00000  Uiso   1.00
C15    C     0.73554   0.57962   0.47441   0.00000  Uiso   1.00
C16    C     0.75768   0.62579   0.52988   0.00000  Uiso   1.00
C17    C     0.72815   0.64336   0.61994   0.00000  Uiso   1.00
C18    C     0.71380   0.55519   0.29026   0.00000  Uiso   1.00
C19    C     0.71767   0.58081   0.19089   0.00000  Uiso   1.00
C20    C     0.66985   0.57781   0.12591   0.00000  Uiso   1.00
C21    C     0.77051   0.49048   0.39905   0.00000  Uiso   1.00
C22    C     0.82205   0.46169   0.39111   0.00000  Uiso   1.00
C23    C     0.82197   0.40420   0.41769   0.00000  Uiso   1.00
H24    H     0.63030   0.48099   0.46113   0.00000  Uiso   1.00
H25    H     0.61752   0.54810   0.62344   0.00000  Uiso   1.00
H26    H     0.57753   0.50312   0.28450   0.00000  Uiso   1.00
H27    H     0.68189   0.38402   0.48469   0.00000  Uiso   1.00
H28    H     0.62534   0.63470   0.78869   0.00000  Uiso   1.00
H29    H     0.54100   0.53984   0.07400   0.00000  Uiso   1.00
H30    H     0.76108   0.28869   0.49614   0.00000  Uiso   1.00
H31    H     0.79974   0.57490   0.34798   0.00000  Uiso   1.00
H32    H     0.79626   0.64717   0.50409   0.00000  Uiso   1.00
H33    H     0.75626   0.60219   0.16515   0.00000  Uiso   1.00
H34    H     0.86063   0.48309   0.36534   0.00000  Uiso   1.00
H35    H     0.77040   0.71512   0.69181   0.00000  Uiso   1.00
H36    H     0.68607   0.62025   0.97712   0.00000  Uiso   1.00
H37    H     0.90615   0.36910   0.39927   0.00000  Uiso   1.00
O38    O     0.69251   0.72076   0.84497   0.00000  Uiso   1.00
O39    O     0.58187   0.59630   0.90731   0.00000  Uiso   1.00
O40    O     0.87062   0.26680   0.46116   0.00000  Uiso   1.00
N41    N     0.65996   0.64370   0.74448   0.00000  Uiso   1.00
N42    N     0.58111   0.55502   0.07629   0.00000  Uiso   1.00
N43    N     0.78687   0.32021   0.47093   0.00000  Uiso   1.00
N44    N     0.73802   0.68697   0.69235   0.00000  Uiso   1.00
N45    N     0.65917   0.59829   0.02416   0.00000  Uiso   1.00
N46    N     0.86493   0.36348   0.41881   0.00000  Uiso   1.00
C47    C     0.33088   0.49750   0.43521   0.00000  Uiso   1.00
C48    C     0.31432   0.44801   0.50772   0.00000  Uiso   1.00
C49    C     0.34389   0.43051   0.59770   0.00000  Uiso   1.00
C50    C     0.32180   0.38432   0.65329   0.00000  Uiso   1.00
C51    C     0.30370   0.31168   0.77090   0.00000  Uiso   1.00
C52    C     0.33606   0.47245   0.32356   0.00000  Uiso   1.00
C53    C     0.38390   0.47549   0.25871   0.00000  Uiso   1.00
C54    C     0.38011   0.44988   0.15927   0.00000  Uiso   1.00
C55    C     0.39573   0.41520   0.99095   0.00000  Uiso   1.00
C56    C     0.27935   0.53716   0.43234   0.00000  Uiso   1.00
C57    C     0.27951   0.59461   0.45893   0.00000  Uiso   1.00
C58    C     0.22798   0.62349   0.45105   0.00000  Uiso   1.00
C59    C     0.15556   0.68928   0.45163   0.00000  Uiso   1.00
C60    C     0.23908   0.44661   0.37391   0.00000  Uiso   1.00
C61    C     0.26446   0.42038   0.47441   0.00000  Uiso   1.00
C62    C     0.24232   0.37421   0.52988   0.00000  Uiso   1.00
C63    C     0.27185   0.35664   0.61994   0.00000  Uiso   1.00
C64    C     0.28620   0.44481   0.29026   0.00000  Uiso   1.00
C65    C     0.28233   0.41919   0.19089   0.00000  Uiso   1.00
C66    C     0.33015   0.42219   0.12591   0.00000  Uiso   1.00
C67    C     0.22949   0.50952   0.39905   0.00000  Uiso   1.00
C68    C     0.17795   0.53831   0.39111   0.00000  Uiso   1.00
C69    C     0.17803   0.59580   0.41769   0.00000  Uiso   1.00
H70    H     0.36970   0.51901   0.46113   0.00000  Uiso   1.00
H71    H     0.38248   0.45190   0.62344   0.00000  Uiso   1.00
H72    H     0.42247   0.49688   0.28450   0.00000  Uiso   1.00
H73    H     0.31811   0.61598   0.48469   0.00000  Uiso   1.00
H74    H     0.37466   0.36530   0.78869   0.00000  Uiso   1.00
H75    H     0.45900   0.46016   0.07400   0.00000  Uiso   1.00
H76    H     0.23892   0.71131   0.49614   0.00000  Uiso   1.00
H77    H     0.20026   0.42510   0.34798   0.00000  Uiso   1.00
H78    H     0.20374   0.35283   0.50409   0.00000  Uiso   1.00
H79    H     0.24374   0.39781   0.16515   0.00000  Uiso   1.00
H80    H     0.13937   0.51691   0.36534   0.00000  Uiso   1.00
H81    H     0.22960   0.28488   0.69181   0.00000  Uiso   1.00
H82    H     0.31393   0.37975   0.97712   0.00000  Uiso   1.00
H83    H     0.09385   0.63090   0.39927   0.00000  Uiso   1.00
O84    O     0.30749   0.27924   0.84497   0.00000  Uiso   1.00
O85    O     0.41813   0.40370   0.90731   0.00000  Uiso   1.00
O86    O     0.12938   0.73320   0.46116   0.00000  Uiso   1.00
N87    N     0.34004   0.35630   0.74448   0.00000  Uiso   1.00
N88    N     0.41889   0.44498   0.07629   0.00000  Uiso   1.00
N89    N     0.21313   0.67979   0.47093   0.00000  Uiso   1.00
N90    N     0.26198   0.31303   0.69235   0.00000  Uiso   1.00
N91    N     0.34083   0.40171   0.02416   0.00000  Uiso   1.00
N92    N     0.13507   0.63652   0.41881   0.00000  Uiso   1.00
C93    C     0.99750   0.16912   0.93521   0.00000  Uiso   1.00
C94    C     0.94801   0.18568   0.00772   0.00000  Uiso   1.00
C95    C     0.93051   0.15611   0.09770   0.00000  Uiso   1.00
C96    C     0.88432   0.17820   0.15329   0.00000  Uiso   1.00
C97    C     0.81168   0.19630   0.27090   0.00000  Uiso   1.00
C98    C     0.97245   0.16394   0.82356   0.00000  Uiso   1.00
C99    C     0.97549   0.11610   0.75871   0.00000  Uiso   1.00
C100   C     0.94988   0.11989   0.65927   0.00000  Uiso   1.00
C101   C     0.91520   0.10427   0.49095   0.00000  Uiso   1.00
C102   C     0.03716   0.22065   0.93234   0.00000  Uiso   1.00
C103   C     0.09461   0.22049   0.95893   0.00000  Uiso   1.00
C104   C     0.12349   0.27202   0.95105   0.00000  Uiso   1.00
C105   C     0.18928   0.34444   0.95163   0.00000  Uiso   1.00
C106   C     0.94661   0.26092   0.87391   0.00000  Uiso   1.00
C107   C     0.92038   0.23554   0.97441   0.00000  Uiso   1.00
C108   C     0.87421   0.25768   0.02988   0.00000  Uiso   1.00
C109   C     0.85664   0.22815   0.11994   0.00000  Uiso   1.00
C110   C     0.94481   0.21380   0.79026   0.00000  Uiso   1.00
C111   C     0.91919   0.21767   0.69089   0.00000  Uiso   1.00
C112   C     0.92219   0.16985   0.62591   0.00000  Uiso   1.00
C113   C     0.00952   0.27051   0.89905   0.00000  Uiso   1.00
C114   C     0.03831   0.32205   0.89111   0.00000  Uiso   1.00
C115   C     0.09580   0.32197   0.91769   0.00000  Uiso   1.00
H116   H     0.01901   0.13030   0.96113   0.00000  Uiso   1.00
H117   H     0.95190   0.11752   0.12344   0.00000  Uiso   1.00
H118   H     0.99688   0.07753   0.78450   0.00000  Uiso   1.00
H119   H     0.11598   0.18189   0.98469   0.00000  Uiso   1.00
H120   H     0.86530   0.12534   0.28869   0.00000  Uiso   1.00
H121   H     0.96016   0.04100   0.57400   0.00000  Uiso   1.00
H122   H     0.21131   0.26108   0.99614   0.00000  Uiso   1.00
H123   H     0.92510   0.29974   0.84798   0.00000  Uiso   1.00
H124   H     0.85283   0.29626   0.00409   0.00000  Uiso   1.00
H125   H     0.89781   0.25626   0.66515   0.00000  Uiso   1.00
H126   H     0.01691   0.36063   0.86534   0.00000  Uiso   1.00
H127   H     0.78488   0.27040   0.19181   0.00000  Uiso   1.00
H128   H     0.87975   0.18607   0.47712   0.00000  Uiso   1.00
H129   H     0.13090   0.40615   0.89927   0.00000  Uiso   1.00
O130   O     0.77924   0.19251   0.34497   0.00000  Uiso   1.00
O131   O     0.90370   0.08187   0.40731   0.00000  Uiso   1.00
O132   O     0.23320   0.37062   0.96116   0.00000  Uiso   1.00
N133   N     0.85630   0.15996   0.24448   0.00000  Uiso   1.00
N134   N     0.94498   0.08111   0.57629   0.00000  Uiso   1.00
N135   N     0.17979   0.28687   0.97093   0.00000  Uiso   1.00
N136   N     0.81303   0.23802   0.19235   0.00000  Uiso   1.00
N137   N     0.90171   0.15917   0.52416   0.00000  Uiso   1.00
N138   N     0.13652   0.36493   0.91881   0.00000  Uiso   1.00
C139   C     0.00250   0.83088   0.93521   0.00000  Uiso   1.00
C140   C     0.05199   0.81432   0.00772   0.00000  Uiso   1.00
C141   C     0.06949   0.84389   0.09770   0.00000  Uiso   1.00
C142   C     0.11568   0.82180   0.15329   0.00000  Uiso   1.00
C143   C     0.18832   0.80370   0.27090   0.00000  Uiso   1.00
C144   C     0.02755   0.83606   0.82356   0.00000  Uiso   1.00
C145   C     0.02451   0.88390   0.75871   0.00000  Uiso   1.00
C146   C     0.05012   0.88011   0.65927   0.00000  Uiso   1.00
C147   C     0.08480   0.89573   0.49095   0.00000  Uiso   1.00
C148   C     0.96284   0.77935   0.93234   0.00000  Uiso   1.00
C149   C     0.90539   0.77951   0.95893   0.00000  Uiso   1.00
C150   C     0.87651   0.72798   0.95105   0.00000  Uiso   1.00
C151   C     0.81072   0.65556   0.95163   0.00000  Uiso   1.00
C152   C     0.05339   0.73908   0.87391   0.00000  Uiso   1.00
C153   C     0.07962   0.76446   0.97441   0.00000  Uiso   1.00
C154   C     0.12579   0.74232   0.02988   0.00000  Uiso   1.00
C155   C     0.14336   0.77185   0.11994   0.00000  Uiso   1.00
C156   C     0.05519   0.78620   0.79026   0.00000  Uiso   1.00
C157   C     0.08081   0.78233   0.69089   0.00000  Uiso   1.00
C158   C     0.07781   0.83015   0.62591   0.00000  Uiso   1.00
C159   C     0.99048   0.72949   0.89905   0.00000  Uiso   1.00
C160   C     0.96169   0.67795   0.89111   0.00000  Uiso   1.00
C161   C     0.90420   0.67803   0.91769   0.00000  Uiso   1.00
H162   H     0.98099   0.86970   0.96113   0.00000  Uiso   1.00
H163   H     0.04810   0.88248   0.12344   0.00000  Uiso   1.00
H164   H     0.00312   0.92247   0.78450   0.00000  Uiso   1.00
H165   H     0.88402   0.81811   0.98469   0.00000  Uiso   1.00
H166   H     0.13470   0.87466   0.28869   0.00000  Uiso   1.00
H167   H     0.03984   0.95900   0.57400   0.00000  Uiso   1.00
H168   H     0.78869   0.73892   0.99614   0.00000  Uiso   1.00
H169   H     0.07490   0.70026   0.84798   0.00000  Uiso   1.00
H170   H     0.14717   0.70374   0.00409   0.00000  Uiso   1.00
H171   H     0.10219   0.74374   0.66515   0.00000  Uiso   1.00
H172   H     0.98309   0.63937   0.86534   0.00000  Uiso   1.00
H173   H     0.21512   0.72960   0.19181   0.00000  Uiso   1.00
H174   H     0.12025   0.81393   0.47712   0.00000  Uiso   1.00
H175   H     0.86910   0.59385   0.89927   0.00000  Uiso   1.00
O176   O     0.22076   0.80749   0.34497   0.00000  Uiso   1.00
O177   O     0.09630   0.91813   0.40731   0.00000  Uiso   1.00
O178   O     0.76680   0.62938   0.96116   0.00000  Uiso   1.00
N179   N     0.14370   0.84004   0.24448   0.00000  Uiso   1.00
N180   N     0.05502   0.91889   0.57629   0.00000  Uiso   1.00
N181   N     0.82021   0.71313   0.97093   0.00000  Uiso   1.00
N182   N     0.18697   0.76198   0.19235   0.00000  Uiso   1.00
N183   N     0.09829   0.84083   0.52416   0.00000  Uiso   1.00
N184   N     0.86348   0.63507   0.91881   0.00000  Uiso   1.00
C185   C     0.83088   0.99750   0.06479   0.00000  Uiso   1.00
C186   C     0.81432   0.94801   0.99228   0.00000  Uiso   1.00
C187   C     0.84389   0.93051   0.90230   0.00000  Uiso   1.00
C188   C     0.82180   0.88432   0.84671   0.00000  Uiso   1.00
C189   C     0.80370   0.81168   0.72910   0.00000  Uiso   1.00
C190   C     0.83606   0.97245   0.17644   0.00000  Uiso   1.00
C191   C     0.88390   0.97549   0.24129   0.00000  Uiso   1.00
C192   C     0.88011   0.94988   0.34073   0.00000  Uiso   1.00
C193   C     0.89573   0.91520   0.50905   0.00000  Uiso   1.00
C194   C     0.77935   0.03716   0.06766   0.00000  Uiso   1.00
C195   C     0.77951   0.09461   0.04107   0.00000  Uiso   1.00
C196   C     0.72798   0.12349   0.04895   0.00000  Uiso   1.00
C197   C     0.65556   0.18928   0.04837   0.00000  Uiso   1.00
C198   C     0.73908   0.94661   0.12609   0.00000  Uiso   1.00
C199   C     0.76446   0.92038   0.02559   0.00000  Uiso   1.00
C200   C     0.74232   0.87421   0.97012   0.00000  Uiso   1.00
C201   C     0.77185   0.85664   0.88006   0.00000  Uiso   1.00
C202   C     0.78620   0.94481   0.20974   0.00000  Uiso   1.00
C203   C     0.78233   0.91919   0.30911   0.00000  Uiso   1.00
C204   C     0.83015   0.92219   0.37409   0.00000  Uiso   1.00
C205   C     0.72949   0.00952   0.10095   0.00000  Uiso   1.00
C206   C     0.67795   0.03831   0.10889   0.00000  Uiso   1.00
C207   C     0.67803   0.09580   0.08231   0.00000  Uiso   1.00
H208   H     0.86970   0.01901   0.03887   0.00000  Uiso   1.00
H209   H     0.88248   0.95190   0.87656   0.00000  Uiso   1.00
H210   H     0.92247   0.99688   0.21550   0.00000  Uiso   1.00
H211   H     0.81811   0.11598   0.01531   0.00000  Uiso   1.00
H212   H     0.87466   0.86530   0.71131   0.00000  Uiso   1.00
H213   H     0.95900   0.96016   0.42600   0.00000  Uiso   1.00
H214   H     0.73892   0.21131   0.00386   0.00000  Uiso   1.00
H215   H     0.70026   0.92510   0.15202   0.00000  Uiso   1.00
H216   H     0.70374   0.85283   0.99591   0.00000  Uiso   1.00
H217   H     0.74374   0.89781   0.33485   0.00000  Uiso   1.00
H218   H     0.63937   0.01691   0.13466   0.00000  Uiso   1.00
H219   H     0.72960   0.78488   0.80819   0.00000  Uiso   1.00
H220   H     0.81393   0.87975   0.52288   0.00000  Uiso   1.00
H221   H     0.59385   0.13090   0.10073   0.00000  Uiso   1.00
O222   O     0.80749   0.77924   0.65503   0.00000  Uiso   1.00
O223   O     0.91813   0.90370   0.59269   0.00000  Uiso   1.00
O224   O     0.62938   0.23320   0.03884   0.00000  Uiso   1.00
N225   N     0.84004   0.85630   0.75552   0.00000  Uiso   1.00
N226   N     0.91889   0.94498   0.42371   0.00000  Uiso   1.00
N227   N     0.71313   0.17979   0.02907   0.00000  Uiso   1.00
N228   N     0.76198   0.81303   0.80765   0.00000  Uiso   1.00
N229   N     0.84083   0.90171   0.47584   0.00000  Uiso   1.00
N230   N     0.63507   0.13652   0.08119   0.00000  Uiso   1.00
C231   C     0.16912   0.00250   0.06479   0.00000  Uiso   1.00
C232   C     0.18568   0.05199   0.99228   0.00000  Uiso   1.00
C233   C     0.15611   0.06949   0.90230   0.00000  Uiso   1.00
C234   C     0.17820   0.11568   0.84671   0.00000  Uiso   1.00
C235   C     0.19630   0.18832   0.72910   0.00000  Uiso   1.00
C236   C     0.16394   0.02755   0.17644   0.00000  Uiso   1.00
C237   C     0.11610   0.02451   0.24129   0.00000  Uiso   1.00
C238   C     0.11989   0.05012   0.34073   0.00000  Uiso   1.00
C239   C     0.10427   0.08480   0.50905   0.00000  Uiso   1.00
C240   C     0.22065   0.96284   0.06766   0.00000  Uiso   1.00
C241   C     0.22049   0.90539   0.04107   0.00000  Uiso   1.00
C242   C     0.27202   0.87651   0.04895   0.00000  Uiso   1.00
C243   C     0.34444   0.81072   0.04837   0.00000  Uiso   1.00
C244   C     0.26092   0.05339   0.12609   0.00000  Uiso   1.00
C245   C     0.23554   0.07962   0.02559   0.00000  Uiso   1.00
C246   C     0.25768   0.12579   0.97012   0.00000  Uiso   1.00
C247   C     0.22815   0.14336   0.88006   0.00000  Uiso   1.00
C248   C     0.21380   0.05519   0.20974   0.00000  Uiso   1.00
C249   C     0.21767   0.08081   0.30911   0.00000  Uiso   1.00
C250   C     0.16985   0.07781   0.37409   0.00000  Uiso   1.00
C251   C     0.27051   0.99048   0.10095   0.00000  Uiso   1.00
C252   C     0.32205   0.96169   0.10889   0.00000  Uiso   1.00
C253   C     0.32197   0.90420   0.08231   0.00000  Uiso   1.00
H254   H     0.13030   0.98099   0.03887   0.00000  Uiso   1.00
H255   H     0.11752   0.04810   0.87656   0.00000  Uiso   1.00
H256   H     0.07753   0.00312   0.21550   0.00000  Uiso   1.00
H257   H     0.18189   0.88402   0.01531   0.00000  Uiso   1.00
H258   H     0.12534   0.13470   0.71131   0.00000  Uiso   1.00
H259   H     0.04100   0.03984   0.42600   0.00000  Uiso   1.00
H260   H     0.26108   0.78869   0.00386   0.00000  Uiso   1.00
H261   H     0.29974   0.07490   0.15202   0.00000  Uiso   1.00
H262   H     0.29626   0.14717   0.99591   0.00000  Uiso   1.00
H263   H     0.25626   0.10219   0.33485   0.00000  Uiso   1.00
H264   H     0.36063   0.98309   0.13466   0.00000  Uiso   1.00
H265   H     0.27040   0.21512   0.80819   0.00000  Uiso   1.00
H266   H     0.18607   0.12025   0.52288   0.00000  Uiso   1.00
H267   H     0.40615   0.86910   0.10073   0.00000  Uiso   1.00
O268   O     0.19251   0.22076   0.65503   0.00000  Uiso   1.00
O269   O     0.08187   0.09630   0.59269   0.00000  Uiso   1.00
O270   O     0.37062   0.76680   0.03884   0.00000  Uiso   1.00
N271   N     0.15996   0.14370   0.75552   0.00000  Uiso   1.00
N272   N     0.08111   0.05502   0.42371   0.00000  Uiso   1.00
N273   N     0.28687   0.82021   0.02907   0.00000  Uiso   1.00
N274   N     0.23802   0.18697   0.80765   0.00000  Uiso   1.00
N275   N     0.15917   0.09829   0.47584   0.00000  Uiso   1.00
N276   N     0.36493   0.86348   0.08119   0.00000  Uiso   1.00
C277   C     0.50250   0.33088   0.56479   0.00000  Uiso   1.00
C278   C     0.55199   0.31432   0.49228   0.00000  Uiso   1.00
C279   C     0.56949   0.34389   0.40230   0.00000  Uiso   1.00
C280   C     0.61568   0.32180   0.34671   0.00000  Uiso   1.00
C281   C     0.68832   0.30370   0.22910   0.00000  Uiso   1.00
C282   C     0.52755   0.33606   0.67644   0.00000  Uiso   1.00
C283   C     0.52451   0.38390   0.74129   0.00000  Uiso   1.00
C284   C     0.55012   0.38011   0.84073   0.00000  Uiso   1.00
C285   C     0.58480   0.39573   0.00905   0.00000  Uiso   1.00
C286   C     0.46284   0.27935   0.56766   0.00000  Uiso   1.00
C287   C     0.40539   0.27951   0.54107   0.00000  Uiso   1.00
C288   C     0.37651   0.22798   0.54895   0.00000  Uiso   1.00
C289   C     0.31072   0.15556   0.54837   0.00000  Uiso   1.00
C290   C     0.55339   0.23908   0.62609   0.00000  Uiso   1.00
C291   C     0.57962   0.26446   0.52559   0.00000  Uiso   1.00
C292   C     0.62579   0.24232   0.47012   0.00000  Uiso   1.00
C293   C     0.64336   0.27185   0.38006   0.00000  Uiso   1.00
C294   C     0.55519   0.28620   0.70974   0.00000  Uiso   1.00
C295   C     0.58081   0.28233   0.80911   0.00000  Uiso   1.00
C296   C     0.57781   0.33015   0.87409   0.00000  Uiso   1.00
C297   C     0.49048   0.22949   0.60095   0.00000  Uiso   1.00
C298   C     0.46169   0.17795   0.60889   0.00000  Uiso   1.00
C299   C     0.40420   0.17803   0.58231   0.00000  Uiso   1.00
H300   H     0.48099   0.36970   0.53887   0.00000  Uiso   1.00
H301   H     0.54810   0.38248   0.37656   0.00000  Uiso   1.00
H302   H     0.50312   0.42247   0.71550   0.00000  Uiso   1.00
H303   H     0.38402   0.31811   0.51531   0.00000  Uiso   1.00
H304   H     0.63470   0.37466   0.21131   0.00000  Uiso   1.00
H305   H     0.53984   0.45900   0.92600   0.00000  Uiso   1.00
H306   H     0.28869   0.23892   0.50386   0.00000  Uiso   1.00
H307   H     0.57490   0.20026   0.65202   0.00000  Uiso   1.00
H308   H     0.64717   0.20374   0.49591   0.00000  Uiso   1.00
H309   H     0.60219   0.24374   0.83485   0.00000  Uiso   1.00
H310   H     0.48309   0.13937   0.63466   0.00000  Uiso   1.00
H311   H     0.71512   0.22960   0.30819   0.00000  Uiso   1.00
H312   H     0.62025   0.31393   0.02288   0.00000  Uiso   1.00
H313   H     0.36910   0.09385   0.60073   0.00000  Uiso   1.00
O314   O     0.72076   0.30749   0.15503   0.00000  Uiso   1.00
O315   O     0.59630   0.41813   0.09269   0.00000  Uiso   1.00
O316   O     0.26680   0.12938   0.53884   0.00000  Uiso   1.00
N317   N     0.64370   0.34004   0.25552   0.00000  Uiso   1.00
N318   N     0.55502   0.41889   0.92371   0.00000  Uiso   1.00
N319   N     0.32021   0.21313   0.52907   0.00000  Uiso   1.00
N320   N     0.68697   0.26198   0.30765   0.00000  Uiso   1.00
N321   N     0.59829   0.34083   0.97584   0.00000  Uiso   1.00
N322   N     0.36348   0.13507   0.58119   0.00000  Uiso   1.00
C323   C     0.49750   0.66912   0.56479   0.00000  Uiso   1.00
C324   C     0.44801   0.68568   0.49228   0.00000  Uiso   1.00
C325   C     0.43051   0.65611   0.40230   0.00000  Uiso   1.00
C326   C     0.38432   0.67820   0.34671   0.00000  Uiso   1.00
C327   C     0.31168   0.69630   0.22910   0.00000  Uiso   1.00
C328   C     0.47245   0.66394   0.67644   0.00000  Uiso   1.00
C329   C     0.47549   0.61610   0.74129   0.00000  Uiso   1.00
C330   C     0.44988   0.61989   0.84073   0.00000  Uiso   1.00
C331   C     0.41520   0.60427   0.00905   0.00000  Uiso   1.00
C332   C     0.53716   0.72065   0.56766   0.00000  Uiso   1.00
C333   C     0.59461   0.72049   0.54107   0.00000  Uiso   1.00
C334   C     0.62349   0.77202   0.54895   0.00000  Uiso   1.00
C335   C     0.68928   0.84444   0.54837   0.00000  Uiso   1.00
C336   C     0.44661   0.76092   0.62609   0.00000  Uiso   1.00
C337   C     0.42038   0.73554   0.52559   0.00000  Uiso   1.00
C338   C     0.37421   0.75768   0.47012   0.00000  Uiso   1.00
C339   C     0.35664   0.72815   0.38006   0.00000  Uiso   1.00
C340   C     0.44481   0.71380   0.70974   0.00000  Uiso   1.00
C341   C     0.41919   0.71767   0.80911   0.00000  Uiso   1.00
C342   C     0.42219   0.66985   0.87409   0.00000  Uiso   1.00
C343   C     0.50952   0.77051   0.60095   0.00000  Uiso   1.00
C344   C     0.53831   0.82205   0.60889   0.00000  Uiso   1.00
C345   C     0.59580   0.82197   0.58231   0.00000  Uiso   1.00
H346   H     0.51901   0.63030   0.53887   0.00000  Uiso   1.00
H347   H     0.45190   0.61752   0.37656   0.00000  Uiso   1.00
H348   H     0.49688   0.57753   0.71550   0.00000  Uiso   1.00
H349   H     0.61598   0.68189   0.51531   0.00000  Uiso   1.00
H350   H     0.36530   0.62534   0.21131   0.00000  Uiso   1.00
H351   H     0.46016   0.54100   0.92600   0.00000  Uiso   1.00
H352   H     0.71131   0.76108   0.50386   0.00000  Uiso   1.00
H353   H     0.42510   0.79974   0.65202   0.00000  Uiso   1.00
H354   H     0.35283   0.79626   0.49591   0.00000  Uiso   1.00
H355   H     0.39781   0.75626   0.83485   0.00000  Uiso   1.00
H356   H     0.51691   0.86063   0.63466   0.00000  Uiso   1.00
H357   H     0.28488   0.77040   0.30819   0.00000  Uiso   1.00
H358   H     0.37975   0.68607   0.02288   0.00000  Uiso   1.00
H359   H     0.63090   0.90615   0.60073   0.00000  Uiso   1.00
O360   O     0.27924   0.69251   0.15503   0.00000  Uiso   1.00
O361   O     0.40370   0.58187   0.09269   0.00000  Uiso   1.00
O362   O     0.73320   0.87062   0.53884   0.00000  Uiso   1.00
N363   N     0.35630   0.65996   0.25552   0.00000  Uiso   1.00
N364   N     0.44498   0.58111   0.92371   0.00000  Uiso   1.00
N365   N     0.67979   0.78687   0.52907   0.00000  Uiso   1.00
N366   N     0.31303   0.73802   0.30765   0.00000  Uiso   1.00
N367   N     0.40171   0.65917   0.97584   0.00000  Uiso   1.00
N368   N     0.63652   0.86493   0.58119   0.00000  Uiso   1.00
