data_job_03122
_audit_creation_date              2018-12-19
_audit_creation_method            'Materials Studio'
_symmetry_space_group_name_H-M    'P1'
_symmetry_Int_Tables_number       1
_symmetry_cell_setting            triclinic
loop_
_symmetry_equiv_pos_as_xyz
  x,y,z
_cell_length_a                    10.2122
_cell_length_b                    34.3236
_cell_length_c                    8.1050
_cell_angle_alpha                 90.0000
_cell_angle_beta                  89.2475
_cell_angle_gamma                 90.0000
loop_
_atom_site_label
_atom_site_type_symbol
_atom_site_fract_x
_atom_site_fract_y
_atom_site_fract_z
_atom_site_U_iso_or_equiv
_atom_site_adp_type
_atom_site_occupancy
C1     C     0.26828   0.41701   0.62895   0.00000  Uiso   1.00
C2     C     0.22018   0.37887   0.70483   0.00000  Uiso   1.00
C3     C     0.13028   0.35361   0.63532   0.00000  Uiso   1.00
C4     C     0.09904   0.32023   0.72421   0.00000  Uiso   1.00
C5     C     0.01569   0.26220   0.81882   0.00000  Uiso   1.00
C6     C     0.23911   0.44854   0.75679   0.00000  Uiso   1.00
C7     C     0.16514   0.48186   0.73095   0.00000  Uiso   1.00
C8     C     0.14986   0.50713   0.86359   0.00000  Uiso   1.00
C9     C     0.09598   0.55728   0.03883   0.00000  Uiso   1.00
C10    C     0.41707   0.41379   0.61811   0.00000  Uiso   1.00
C11    C     0.49273   0.41789   0.47569   0.00000  Uiso   1.00
C12    C     0.62728   0.41391   0.49157   0.00000  Uiso   1.00
C13    C     0.84970   0.41010   0.45150   0.00000  Uiso   1.00
C14    C     0.37267   0.40266   0.91041   0.00000  Uiso   1.00
C15    C     0.27689   0.37108   0.85771   0.00000  Uiso   1.00
C16    C     0.24578   0.33772   0.94673   0.00000  Uiso   1.00
C17    C     0.15585   0.31241   0.87736   0.00000  Uiso   1.00
C18    C     0.29581   0.44075   0.90967   0.00000  Uiso   1.00
C19    C     0.28065   0.46597   0.04236   0.00000  Uiso   1.00
C20    C     0.20667   0.49932   0.01674   0.00000  Uiso   1.00
C21    C     0.47377   0.40599   0.77099   0.00000  Uiso   1.00
C22    C     0.60823   0.40201   0.78710   0.00000  Uiso   1.00
C23    C     0.68409   0.40610   0.64473   0.00000  Uiso   1.00
H24    H     0.22413   0.42309   0.50993   0.00000  Uiso   1.00
H25    H     0.08641   0.35966   0.51701   0.00000  Uiso   1.00
H26    H     0.12129   0.48789   0.61263   0.00000  Uiso   1.00
H27    H     0.44882   0.42393   0.35740   0.00000  Uiso   1.00
H28    H     0.95869   0.28590   0.59232   0.00000  Uiso   1.00
H29    H     0.03227   0.55629   0.79391   0.00000  Uiso   1.00
H30    H     0.72294   0.42142   0.25572   0.00000  Uiso   1.00
H31    H     0.41682   0.39659   0.02944   0.00000  Uiso   1.00
H32    H     0.28968   0.33170   0.06504   0.00000  Uiso   1.00
H33    H     0.32455   0.45993   0.16065   0.00000  Uiso   1.00
H34    H     0.65208   0.39597   0.90543   0.00000  Uiso   1.00
H35    H     0.12367   0.26321   0.03712   0.00000  Uiso   1.00
H36    H     0.19724   0.53360   0.23871   0.00000  Uiso   1.00
H37    H     0.88791   0.39873   0.70052   0.00000  Uiso   1.00
O38    O     0.95403   0.23235   0.82878   0.00000  Uiso   1.00
O39    O     0.05058   0.58709   0.09325   0.00000  Uiso   1.00
O40    O     0.95671   0.41015   0.38716   0.00000  Uiso   1.00
N41    N     0.01499   0.28946   0.69210   0.00000  Uiso   1.00
N42    N     0.08376   0.54225   0.88059   0.00000  Uiso   1.00
N43    N     0.72948   0.41618   0.37743   0.00000  Uiso   1.00
N44    N     0.10376   0.27725   0.93144   0.00000  Uiso   1.00
N45    N     0.17253   0.53004   0.11993   0.00000  Uiso   1.00
N46    N     0.81825   0.40397   0.61677   0.00000  Uiso   1.00
C47    C     0.73172   0.91701   0.87105   0.00000  Uiso   1.00
C48    C     0.77982   0.87887   0.79517   0.00000  Uiso   1.00
C49    C     0.86972   0.85361   0.86468   0.00000  Uiso   1.00
C50    C     0.90096   0.82023   0.77579   0.00000  Uiso   1.00
C51    C     0.98431   0.76220   0.68118   0.00000  Uiso   1.00
C52    C     0.76089   0.94854   0.74321   0.00000  Uiso   1.00
C53    C     0.83486   0.98186   0.76905   0.00000  Uiso   1.00
C54    C     0.85014   0.00713   0.63641   0.00000  Uiso   1.00
C55    C     0.90402   0.05728   0.46117   0.00000  Uiso   1.00
C56    C     0.58293   0.91379   0.88189   0.00000  Uiso   1.00
C57    C     0.50727   0.91789   0.02431   0.00000  Uiso   1.00
C58    C     0.37272   0.91391   0.00843   0.00000  Uiso   1.00
C59    C     0.15030   0.91010   0.04850   0.00000  Uiso   1.00
C60    C     0.62733   0.90266   0.58959   0.00000  Uiso   1.00
C61    C     0.72311   0.87108   0.64229   0.00000  Uiso   1.00
C62    C     0.75422   0.83772   0.55327   0.00000  Uiso   1.00
C63    C     0.84415   0.81241   0.62264   0.00000  Uiso   1.00
C64    C     0.70419   0.94075   0.59033   0.00000  Uiso   1.00
C65    C     0.71935   0.96597   0.45764   0.00000  Uiso   1.00
C66    C     0.79333   0.99932   0.48326   0.00000  Uiso   1.00
C67    C     0.52623   0.90599   0.72901   0.00000  Uiso   1.00
C68    C     0.39177   0.90201   0.71290   0.00000  Uiso   1.00
C69    C     0.31591   0.90610   0.85527   0.00000  Uiso   1.00
H70    H     0.77587   0.92309   0.99007   0.00000  Uiso   1.00
H71    H     0.91359   0.85966   0.98299   0.00000  Uiso   1.00
H72    H     0.87871   0.98789   0.88737   0.00000  Uiso   1.00
H73    H     0.55118   0.92393   0.14260   0.00000  Uiso   1.00
H74    H     0.04131   0.78590   0.90768   0.00000  Uiso   1.00
H75    H     0.96773   0.05629   0.70609   0.00000  Uiso   1.00
H76    H     0.27706   0.92142   0.24428   0.00000  Uiso   1.00
H77    H     0.58318   0.89659   0.47056   0.00000  Uiso   1.00
H78    H     0.71032   0.83170   0.43496   0.00000  Uiso   1.00
H79    H     0.67545   0.95993   0.33935   0.00000  Uiso   1.00
H80    H     0.34792   0.89597   0.59457   0.00000  Uiso   1.00
H81    H     0.87633   0.76321   0.46288   0.00000  Uiso   1.00
H82    H     0.80276   0.03360   0.26129   0.00000  Uiso   1.00
H83    H     0.11209   0.89873   0.79948   0.00000  Uiso   1.00
O84    O     0.04597   0.73235   0.67122   0.00000  Uiso   1.00
O85    O     0.94942   0.08709   0.40675   0.00000  Uiso   1.00
O86    O     0.04329   0.91015   0.11284   0.00000  Uiso   1.00
N87    N     0.98501   0.78946   0.80790   0.00000  Uiso   1.00
N88    N     0.91624   0.04225   0.61941   0.00000  Uiso   1.00
N89    N     0.27052   0.91618   0.12257   0.00000  Uiso   1.00
N90    N     0.89624   0.77725   0.56856   0.00000  Uiso   1.00
N91    N     0.82747   0.03004   0.38007   0.00000  Uiso   1.00
N92    N     0.18175   0.90397   0.88323   0.00000  Uiso   1.00
C93    C     0.73172   0.58299   0.37105   0.00000  Uiso   1.00
C94    C     0.77982   0.62113   0.29517   0.00000  Uiso   1.00
C95    C     0.86972   0.64639   0.36468   0.00000  Uiso   1.00
C96    C     0.90096   0.67977   0.27579   0.00000  Uiso   1.00
C97    C     0.98431   0.73780   0.18118   0.00000  Uiso   1.00
C98    C     0.76089   0.55146   0.24321   0.00000  Uiso   1.00
C99    C     0.83486   0.51814   0.26905   0.00000  Uiso   1.00
C100   C     0.85014   0.49287   0.13641   0.00000  Uiso   1.00
C101   C     0.90402   0.44272   0.96117   0.00000  Uiso   1.00
C102   C     0.58293   0.58621   0.38189   0.00000  Uiso   1.00
C103   C     0.50727   0.58211   0.52431   0.00000  Uiso   1.00
C104   C     0.37272   0.58609   0.50843   0.00000  Uiso   1.00
C105   C     0.15030   0.58990   0.54850   0.00000  Uiso   1.00
C106   C     0.62733   0.59734   0.08959   0.00000  Uiso   1.00
C107   C     0.72311   0.62892   0.14229   0.00000  Uiso   1.00
C108   C     0.75422   0.66228   0.05327   0.00000  Uiso   1.00
C109   C     0.84415   0.68759   0.12264   0.00000  Uiso   1.00
C110   C     0.70419   0.55925   0.09033   0.00000  Uiso   1.00
C111   C     0.71935   0.53403   0.95764   0.00000  Uiso   1.00
C112   C     0.79333   0.50068   0.98326   0.00000  Uiso   1.00
C113   C     0.52623   0.59401   0.22901   0.00000  Uiso   1.00
C114   C     0.39177   0.59799   0.21290   0.00000  Uiso   1.00
C115   C     0.31591   0.59390   0.35527   0.00000  Uiso   1.00
H116   H     0.77587   0.57691   0.49007   0.00000  Uiso   1.00
H117   H     0.91359   0.64034   0.48299   0.00000  Uiso   1.00
H118   H     0.87871   0.51211   0.38737   0.00000  Uiso   1.00
H119   H     0.55118   0.57607   0.64260   0.00000  Uiso   1.00
H120   H     0.04131   0.71410   0.40768   0.00000  Uiso   1.00
H121   H     0.96773   0.44371   0.20609   0.00000  Uiso   1.00
H122   H     0.27706   0.57858   0.74428   0.00000  Uiso   1.00
H123   H     0.58318   0.60341   0.97056   0.00000  Uiso   1.00
H124   H     0.71032   0.66830   0.93496   0.00000  Uiso   1.00
H125   H     0.67545   0.54007   0.83935   0.00000  Uiso   1.00
H126   H     0.34792   0.60403   0.09457   0.00000  Uiso   1.00
H127   H     0.87633   0.73679   0.96288   0.00000  Uiso   1.00
H128   H     0.80276   0.46640   0.76129   0.00000  Uiso   1.00
H129   H     0.11209   0.60127   0.29948   0.00000  Uiso   1.00
O130   O     0.04597   0.76765   0.17122   0.00000  Uiso   1.00
O131   O     0.94942   0.41291   0.90675   0.00000  Uiso   1.00
O132   O     0.04329   0.58985   0.61284   0.00000  Uiso   1.00
N133   N     0.98501   0.71054   0.30790   0.00000  Uiso   1.00
N134   N     0.91624   0.45775   0.11941   0.00000  Uiso   1.00
N135   N     0.27052   0.58382   0.62257   0.00000  Uiso   1.00
N136   N     0.89624   0.72275   0.06856   0.00000  Uiso   1.00
N137   N     0.82747   0.46996   0.88007   0.00000  Uiso   1.00
N138   N     0.18175   0.59603   0.38323   0.00000  Uiso   1.00
C139   C     0.26828   0.08299   0.12895   0.00000  Uiso   1.00
C140   C     0.22018   0.12113   0.20483   0.00000  Uiso   1.00
C141   C     0.13028   0.14639   0.13532   0.00000  Uiso   1.00
C142   C     0.09904   0.17977   0.22421   0.00000  Uiso   1.00
C143   C     0.01569   0.23780   0.31882   0.00000  Uiso   1.00
C144   C     0.23911   0.05146   0.25679   0.00000  Uiso   1.00
C145   C     0.16514   0.01814   0.23095   0.00000  Uiso   1.00
C146   C     0.14986   0.99287   0.36359   0.00000  Uiso   1.00
C147   C     0.09598   0.94272   0.53883   0.00000  Uiso   1.00
C148   C     0.41707   0.08621   0.11811   0.00000  Uiso   1.00
C149   C     0.49273   0.08211   0.97569   0.00000  Uiso   1.00
C150   C     0.62728   0.08609   0.99157   0.00000  Uiso   1.00
C151   C     0.84970   0.08990   0.95150   0.00000  Uiso   1.00
C152   C     0.37267   0.09734   0.41041   0.00000  Uiso   1.00
C153   C     0.27689   0.12892   0.35771   0.00000  Uiso   1.00
C154   C     0.24578   0.16228   0.44673   0.00000  Uiso   1.00
C155   C     0.15585   0.18759   0.37736   0.00000  Uiso   1.00
C156   C     0.29581   0.05925   0.40967   0.00000  Uiso   1.00
C157   C     0.28065   0.03403   0.54236   0.00000  Uiso   1.00
C158   C     0.20667   0.00068   0.51674   0.00000  Uiso   1.00
C159   C     0.47377   0.09401   0.27099   0.00000  Uiso   1.00
C160   C     0.60823   0.09799   0.28710   0.00000  Uiso   1.00
C161   C     0.68409   0.09390   0.14473   0.00000  Uiso   1.00
H162   H     0.22413   0.07691   0.00993   0.00000  Uiso   1.00
H163   H     0.08641   0.14034   0.01701   0.00000  Uiso   1.00
H164   H     0.12129   0.01211   0.11263   0.00000  Uiso   1.00
H165   H     0.44882   0.07607   0.85740   0.00000  Uiso   1.00
H166   H     0.95869   0.21410   0.09232   0.00000  Uiso   1.00
H167   H     0.03227   0.94371   0.29391   0.00000  Uiso   1.00
H168   H     0.72294   0.07858   0.75572   0.00000  Uiso   1.00
H169   H     0.41682   0.10341   0.52944   0.00000  Uiso   1.00
H170   H     0.28968   0.16830   0.56504   0.00000  Uiso   1.00
H171   H     0.32455   0.04007   0.66065   0.00000  Uiso   1.00
H172   H     0.65208   0.10403   0.40543   0.00000  Uiso   1.00
H173   H     0.12367   0.23679   0.53712   0.00000  Uiso   1.00
H174   H     0.19724   0.96640   0.73871   0.00000  Uiso   1.00
H175   H     0.88791   0.10127   0.20052   0.00000  Uiso   1.00
O176   O     0.95403   0.26765   0.32878   0.00000  Uiso   1.00
O177   O     0.05058   0.91291   0.59325   0.00000  Uiso   1.00
O178   O     0.95671   0.08985   0.88716   0.00000  Uiso   1.00
N179   N     0.01499   0.21054   0.19210   0.00000  Uiso   1.00
N180   N     0.08376   0.95775   0.38059   0.00000  Uiso   1.00
N181   N     0.72948   0.08382   0.87743   0.00000  Uiso   1.00
N182   N     0.10376   0.22275   0.43144   0.00000  Uiso   1.00
N183   N     0.17253   0.96996   0.61993   0.00000  Uiso   1.00
N184   N     0.81825   0.09603   0.11677   0.00000  Uiso   1.00
