data_job_05354
_audit_creation_date              2018-12-19
_audit_creation_method            'Materials Studio'
_symmetry_space_group_name_H-M    'P1'
_symmetry_Int_Tables_number       1
_symmetry_cell_setting            triclinic
loop_
_symmetry_equiv_pos_as_xyz
  x,y,z
_cell_length_a                    39.8556
_cell_length_b                    12.4303
_cell_length_c                    12.4340
_cell_angle_alpha                 90.0000
_cell_angle_beta                  90.0000
_cell_angle_gamma                 90.0000
loop_
_atom_site_label
_atom_site_type_symbol
_atom_site_fract_x
_atom_site_fract_y
_atom_site_fract_z
_atom_site_U_iso_or_equiv
_atom_site_adp_type
_atom_site_occupancy
C1     C     0.13306   0.09826   0.16380   0.00000  Uiso   1.00
C2     C     0.15651   0.01454   0.11496   0.00000  Uiso   1.00
C3     C     0.16552   0.91750   0.16197   0.00000  Uiso   1.00
C4     C     0.18728   0.85203   0.10435   0.00000  Uiso   1.00
C5     C     0.22184   0.71741   0.04389   0.00000  Uiso   1.00
C6     C     0.15294   0.20301   0.16751   0.00000  Uiso   1.00
C7     C     0.15895   0.26443   0.25871   0.00000  Uiso   1.00
C8     C     0.17770   0.35761   0.24532   0.00000  Uiso   1.00
C9     C     0.20669   0.51563   0.26644   0.00000  Uiso   1.00
C10    C     0.10522   0.11581   0.08152   0.00000  Uiso   1.00
C11    C     0.07111   0.10394   0.10042   0.00000  Uiso   1.00
C12    C     0.04968   0.12374   0.01463   0.00000  Uiso   1.00
C13    C     0.00458   0.14637   0.90224   0.00000  Uiso   1.00
C14    C     0.15567   0.15455   0.97785   0.00000  Uiso   1.00
C15    C     0.16879   0.04512   0.01396   0.00000  Uiso   1.00
C16    C     0.19054   0.97978   0.95624   0.00000  Uiso   1.00
C17    C     0.19958   0.88265   0.00316   0.00000  Uiso   1.00
C18    C     0.16522   0.23359   0.06651   0.00000  Uiso   1.00
C19    C     0.18396   0.32671   0.05298   0.00000  Uiso   1.00
C20    C     0.19000   0.38825   0.14414   0.00000  Uiso   1.00
C21    C     0.11750   0.14638   0.98052   0.00000  Uiso   1.00
C22    C     0.09612   0.16621   0.89469   0.00000  Uiso   1.00
C23    C     0.06198   0.15437   0.91345   0.00000  Uiso   1.00
H24    H     0.12350   0.07446   0.24244   0.00000  Uiso   1.00
H25    H     0.15602   0.89387   0.24014   0.00000  Uiso   1.00
H26    H     0.14944   0.24075   0.33686   0.00000  Uiso   1.00
H27    H     0.06161   0.08028   0.17859   0.00000  Uiso   1.00
H28    H     0.19749   0.70715   0.19307   0.00000  Uiso   1.00
H29    H     0.18361   0.43859   0.39700   0.00000  Uiso   1.00
H30    H     0.99841   0.10021   0.06327   0.00000  Uiso   1.00
H31    H     0.16523   0.17836   0.89922   0.00000  Uiso   1.00
H32    H     0.20004   0.00346   0.87808   0.00000  Uiso   1.00
H33    H     0.19346   0.35035   0.97481   0.00000  Uiso   1.00
H34    H     0.10564   0.18987   0.81654   0.00000  Uiso   1.00
H35    H     0.23323   0.79611   0.89921   0.00000  Uiso   1.00
H36    H     0.21934   0.52755   0.10315   0.00000  Uiso   1.00
H37    H     0.03414   0.18916   0.76941   0.00000  Uiso   1.00
O38    O     0.23751   0.63472   0.03845   0.00000  Uiso   1.00
O39    O     0.21930   0.59434   0.30600   0.00000  Uiso   1.00
O40    O     0.97632   0.15039   0.86814   0.00000  Uiso   1.00
N41    N     0.20112   0.75208   0.12680   0.00000  Uiso   1.00
N42    N     0.18815   0.43592   0.31747   0.00000  Uiso   1.00
N43    N     0.01500   0.11959   0.00546   0.00000  Uiso   1.00
N44    N     0.22035   0.79994   0.96868   0.00000  Uiso   1.00
N45    N     0.20737   0.48378   0.15935   0.00000  Uiso   1.00
N46    N     0.03423   0.16745   0.84734   0.00000  Uiso   1.00
C47    C     0.36694   0.90174   0.16380   0.00000  Uiso   1.00
C48    C     0.34349   0.98546   0.11496   0.00000  Uiso   1.00
C49    C     0.33448   0.08250   0.16197   0.00000  Uiso   1.00
C50    C     0.31272   0.14797   0.10435   0.00000  Uiso   1.00
C51    C     0.27816   0.28259   0.04389   0.00000  Uiso   1.00
C52    C     0.34706   0.79699   0.16751   0.00000  Uiso   1.00
C53    C     0.34105   0.73557   0.25871   0.00000  Uiso   1.00
C54    C     0.32230   0.64239   0.24532   0.00000  Uiso   1.00
C55    C     0.29331   0.48437   0.26644   0.00000  Uiso   1.00
C56    C     0.39478   0.88419   0.08152   0.00000  Uiso   1.00
C57    C     0.42889   0.89606   0.10042   0.00000  Uiso   1.00
C58    C     0.45032   0.87626   0.01463   0.00000  Uiso   1.00
C59    C     0.49542   0.85363   0.90224   0.00000  Uiso   1.00
C60    C     0.34433   0.84545   0.97785   0.00000  Uiso   1.00
C61    C     0.33121   0.95488   0.01396   0.00000  Uiso   1.00
C62    C     0.30946   0.02022   0.95624   0.00000  Uiso   1.00
C63    C     0.30042   0.11735   0.00316   0.00000  Uiso   1.00
C64    C     0.33478   0.76641   0.06651   0.00000  Uiso   1.00
C65    C     0.31604   0.67329   0.05298   0.00000  Uiso   1.00
C66    C     0.31000   0.61175   0.14414   0.00000  Uiso   1.00
C67    C     0.38250   0.85362   0.98052   0.00000  Uiso   1.00
C68    C     0.40388   0.83379   0.89469   0.00000  Uiso   1.00
C69    C     0.43802   0.84563   0.91345   0.00000  Uiso   1.00
H70    H     0.37650   0.92554   0.24244   0.00000  Uiso   1.00
H71    H     0.34398   0.10613   0.24014   0.00000  Uiso   1.00
H72    H     0.35056   0.75925   0.33686   0.00000  Uiso   1.00
H73    H     0.43839   0.91972   0.17859   0.00000  Uiso   1.00
H74    H     0.30251   0.29285   0.19307   0.00000  Uiso   1.00
H75    H     0.31639   0.56141   0.39700   0.00000  Uiso   1.00
H76    H     0.50159   0.89979   0.06327   0.00000  Uiso   1.00
H77    H     0.33477   0.82164   0.89922   0.00000  Uiso   1.00
H78    H     0.29996   0.99654   0.87808   0.00000  Uiso   1.00
H79    H     0.30654   0.64965   0.97481   0.00000  Uiso   1.00
H80    H     0.39436   0.81013   0.81654   0.00000  Uiso   1.00
H81    H     0.26677   0.20389   0.89921   0.00000  Uiso   1.00
H82    H     0.28066   0.47245   0.10315   0.00000  Uiso   1.00
H83    H     0.46586   0.81084   0.76941   0.00000  Uiso   1.00
O84    O     0.26249   0.36528   0.03845   0.00000  Uiso   1.00
O85    O     0.28070   0.40566   0.30600   0.00000  Uiso   1.00
O86    O     0.52368   0.84961   0.86814   0.00000  Uiso   1.00
N87    N     0.29888   0.24792   0.12680   0.00000  Uiso   1.00
N88    N     0.31185   0.56408   0.31747   0.00000  Uiso   1.00
N89    N     0.48500   0.88041   0.00546   0.00000  Uiso   1.00
N90    N     0.27965   0.20006   0.96868   0.00000  Uiso   1.00
N91    N     0.29263   0.51622   0.15935   0.00000  Uiso   1.00
N92    N     0.46577   0.83255   0.84734   0.00000  Uiso   1.00
C93    C     0.86694   0.09826   0.33620   0.00000  Uiso   1.00
C94    C     0.84349   0.01454   0.38504   0.00000  Uiso   1.00
C95    C     0.83448   0.91750   0.33803   0.00000  Uiso   1.00
C96    C     0.81272   0.85203   0.39565   0.00000  Uiso   1.00
C97    C     0.77816   0.71741   0.45611   0.00000  Uiso   1.00
C98    C     0.84706   0.20301   0.33249   0.00000  Uiso   1.00
C99    C     0.84105   0.26443   0.24129   0.00000  Uiso   1.00
C100   C     0.82230   0.35761   0.25468   0.00000  Uiso   1.00
C101   C     0.79331   0.51563   0.23356   0.00000  Uiso   1.00
C102   C     0.89478   0.11581   0.41848   0.00000  Uiso   1.00
C103   C     0.92889   0.10394   0.39958   0.00000  Uiso   1.00
C104   C     0.95032   0.12374   0.48537   0.00000  Uiso   1.00
C105   C     0.99542   0.14637   0.59776   0.00000  Uiso   1.00
C106   C     0.84433   0.15455   0.52215   0.00000  Uiso   1.00
C107   C     0.83121   0.04512   0.48604   0.00000  Uiso   1.00
C108   C     0.80946   0.97978   0.54376   0.00000  Uiso   1.00
C109   C     0.80042   0.88265   0.49684   0.00000  Uiso   1.00
C110   C     0.83478   0.23359   0.43349   0.00000  Uiso   1.00
C111   C     0.81604   0.32671   0.44702   0.00000  Uiso   1.00
C112   C     0.81000   0.38825   0.35586   0.00000  Uiso   1.00
C113   C     0.88250   0.14638   0.51948   0.00000  Uiso   1.00
C114   C     0.90388   0.16621   0.60531   0.00000  Uiso   1.00
C115   C     0.93802   0.15437   0.58655   0.00000  Uiso   1.00
H116   H     0.87650   0.07446   0.25756   0.00000  Uiso   1.00
H117   H     0.84398   0.89387   0.25986   0.00000  Uiso   1.00
H118   H     0.85056   0.24075   0.16314   0.00000  Uiso   1.00
H119   H     0.93839   0.08028   0.32141   0.00000  Uiso   1.00
H120   H     0.80251   0.70715   0.30693   0.00000  Uiso   1.00
H121   H     0.81639   0.43859   0.10300   0.00000  Uiso   1.00
H122   H     0.00159   0.10021   0.43673   0.00000  Uiso   1.00
H123   H     0.83477   0.17836   0.60078   0.00000  Uiso   1.00
H124   H     0.79996   0.00346   0.62192   0.00000  Uiso   1.00
H125   H     0.80654   0.35035   0.52519   0.00000  Uiso   1.00
H126   H     0.89436   0.18987   0.68346   0.00000  Uiso   1.00
H127   H     0.76677   0.79611   0.60079   0.00000  Uiso   1.00
H128   H     0.78066   0.52755   0.39685   0.00000  Uiso   1.00
H129   H     0.96586   0.18916   0.73059   0.00000  Uiso   1.00
O130   O     0.76249   0.63472   0.46155   0.00000  Uiso   1.00
O131   O     0.78070   0.59434   0.19400   0.00000  Uiso   1.00
O132   O     0.02368   0.15039   0.63186   0.00000  Uiso   1.00
N133   N     0.79888   0.75208   0.37320   0.00000  Uiso   1.00
N134   N     0.81185   0.43592   0.18253   0.00000  Uiso   1.00
N135   N     0.98500   0.11959   0.49454   0.00000  Uiso   1.00
N136   N     0.77965   0.79994   0.53132   0.00000  Uiso   1.00
N137   N     0.79263   0.48378   0.34065   0.00000  Uiso   1.00
N138   N     0.96577   0.16745   0.65266   0.00000  Uiso   1.00
C139   C     0.63306   0.90174   0.33620   0.00000  Uiso   1.00
C140   C     0.65651   0.98546   0.38504   0.00000  Uiso   1.00
C141   C     0.66552   0.08250   0.33803   0.00000  Uiso   1.00
C142   C     0.68728   0.14797   0.39565   0.00000  Uiso   1.00
C143   C     0.72184   0.28259   0.45611   0.00000  Uiso   1.00
C144   C     0.65294   0.79699   0.33249   0.00000  Uiso   1.00
C145   C     0.65895   0.73557   0.24129   0.00000  Uiso   1.00
C146   C     0.67770   0.64239   0.25468   0.00000  Uiso   1.00
C147   C     0.70669   0.48437   0.23356   0.00000  Uiso   1.00
C148   C     0.60522   0.88419   0.41848   0.00000  Uiso   1.00
C149   C     0.57111   0.89606   0.39958   0.00000  Uiso   1.00
C150   C     0.54968   0.87626   0.48537   0.00000  Uiso   1.00
C151   C     0.50458   0.85363   0.59776   0.00000  Uiso   1.00
C152   C     0.65567   0.84545   0.52215   0.00000  Uiso   1.00
C153   C     0.66879   0.95488   0.48604   0.00000  Uiso   1.00
C154   C     0.69054   0.02022   0.54376   0.00000  Uiso   1.00
C155   C     0.69958   0.11735   0.49684   0.00000  Uiso   1.00
C156   C     0.66522   0.76641   0.43349   0.00000  Uiso   1.00
C157   C     0.68396   0.67329   0.44702   0.00000  Uiso   1.00
C158   C     0.69000   0.61175   0.35586   0.00000  Uiso   1.00
C159   C     0.61750   0.85362   0.51948   0.00000  Uiso   1.00
C160   C     0.59612   0.83379   0.60531   0.00000  Uiso   1.00
C161   C     0.56198   0.84563   0.58655   0.00000  Uiso   1.00
H162   H     0.62350   0.92554   0.25756   0.00000  Uiso   1.00
H163   H     0.65602   0.10613   0.25986   0.00000  Uiso   1.00
H164   H     0.64944   0.75925   0.16314   0.00000  Uiso   1.00
H165   H     0.56161   0.91972   0.32141   0.00000  Uiso   1.00
H166   H     0.69749   0.29285   0.30693   0.00000  Uiso   1.00
H167   H     0.68361   0.56141   0.10300   0.00000  Uiso   1.00
H168   H     0.49841   0.89979   0.43673   0.00000  Uiso   1.00
H169   H     0.66523   0.82164   0.60078   0.00000  Uiso   1.00
H170   H     0.70004   0.99654   0.62192   0.00000  Uiso   1.00
H171   H     0.69346   0.64965   0.52519   0.00000  Uiso   1.00
H172   H     0.60564   0.81013   0.68346   0.00000  Uiso   1.00
H173   H     0.73323   0.20389   0.60079   0.00000  Uiso   1.00
H174   H     0.71934   0.47245   0.39685   0.00000  Uiso   1.00
H175   H     0.53414   0.81084   0.73059   0.00000  Uiso   1.00
O176   O     0.73751   0.36528   0.46155   0.00000  Uiso   1.00
O177   O     0.71930   0.40566   0.19400   0.00000  Uiso   1.00
O178   O     0.47632   0.84961   0.63186   0.00000  Uiso   1.00
N179   N     0.70112   0.24792   0.37320   0.00000  Uiso   1.00
N180   N     0.68815   0.56408   0.18253   0.00000  Uiso   1.00
N181   N     0.51500   0.88041   0.49454   0.00000  Uiso   1.00
N182   N     0.72035   0.20006   0.53132   0.00000  Uiso   1.00
N183   N     0.70737   0.51622   0.34065   0.00000  Uiso   1.00
N184   N     0.53423   0.83255   0.65266   0.00000  Uiso   1.00
C185   C     0.86694   0.90174   0.83620   0.00000  Uiso   1.00
C186   C     0.84349   0.98546   0.88504   0.00000  Uiso   1.00
C187   C     0.83448   0.08250   0.83803   0.00000  Uiso   1.00
C188   C     0.81272   0.14797   0.89565   0.00000  Uiso   1.00
C189   C     0.77816   0.28259   0.95611   0.00000  Uiso   1.00
C190   C     0.84706   0.79699   0.83249   0.00000  Uiso   1.00
C191   C     0.84105   0.73557   0.74129   0.00000  Uiso   1.00
C192   C     0.82230   0.64239   0.75468   0.00000  Uiso   1.00
C193   C     0.79331   0.48437   0.73356   0.00000  Uiso   1.00
C194   C     0.89478   0.88419   0.91848   0.00000  Uiso   1.00
C195   C     0.92889   0.89606   0.89958   0.00000  Uiso   1.00
C196   C     0.95032   0.87626   0.98537   0.00000  Uiso   1.00
C197   C     0.99542   0.85363   0.09776   0.00000  Uiso   1.00
C198   C     0.84433   0.84545   0.02215   0.00000  Uiso   1.00
C199   C     0.83121   0.95488   0.98604   0.00000  Uiso   1.00
C200   C     0.80946   0.02022   0.04376   0.00000  Uiso   1.00
C201   C     0.80042   0.11735   0.99684   0.00000  Uiso   1.00
C202   C     0.83478   0.76641   0.93349   0.00000  Uiso   1.00
C203   C     0.81604   0.67329   0.94702   0.00000  Uiso   1.00
C204   C     0.81000   0.61175   0.85586   0.00000  Uiso   1.00
C205   C     0.88250   0.85362   0.01948   0.00000  Uiso   1.00
C206   C     0.90388   0.83379   0.10531   0.00000  Uiso   1.00
C207   C     0.93802   0.84563   0.08655   0.00000  Uiso   1.00
H208   H     0.87650   0.92554   0.75756   0.00000  Uiso   1.00
H209   H     0.84398   0.10613   0.75986   0.00000  Uiso   1.00
H210   H     0.85056   0.75925   0.66314   0.00000  Uiso   1.00
H211   H     0.93839   0.91972   0.82141   0.00000  Uiso   1.00
H212   H     0.80251   0.29285   0.80693   0.00000  Uiso   1.00
H213   H     0.81639   0.56141   0.60300   0.00000  Uiso   1.00
H214   H     0.00159   0.89979   0.93673   0.00000  Uiso   1.00
H215   H     0.83477   0.82164   0.10078   0.00000  Uiso   1.00
H216   H     0.79996   0.99654   0.12192   0.00000  Uiso   1.00
H217   H     0.80654   0.64965   0.02519   0.00000  Uiso   1.00
H218   H     0.89436   0.81013   0.18346   0.00000  Uiso   1.00
H219   H     0.76677   0.20389   0.10079   0.00000  Uiso   1.00
H220   H     0.78066   0.47245   0.89685   0.00000  Uiso   1.00
H221   H     0.96586   0.81084   0.23059   0.00000  Uiso   1.00
O222   O     0.76249   0.36528   0.96155   0.00000  Uiso   1.00
O223   O     0.78070   0.40566   0.69400   0.00000  Uiso   1.00
O224   O     0.02368   0.84961   0.13186   0.00000  Uiso   1.00
N225   N     0.79888   0.24792   0.87320   0.00000  Uiso   1.00
N226   N     0.81185   0.56408   0.68253   0.00000  Uiso   1.00
N227   N     0.98500   0.88041   0.99454   0.00000  Uiso   1.00
N228   N     0.77965   0.20006   0.03132   0.00000  Uiso   1.00
N229   N     0.79263   0.51622   0.84065   0.00000  Uiso   1.00
N230   N     0.96577   0.83255   0.15266   0.00000  Uiso   1.00
C231   C     0.63306   0.09826   0.83620   0.00000  Uiso   1.00
C232   C     0.65651   0.01454   0.88504   0.00000  Uiso   1.00
C233   C     0.66552   0.91750   0.83803   0.00000  Uiso   1.00
C234   C     0.68728   0.85203   0.89565   0.00000  Uiso   1.00
C235   C     0.72184   0.71741   0.95611   0.00000  Uiso   1.00
C236   C     0.65294   0.20301   0.83249   0.00000  Uiso   1.00
C237   C     0.65895   0.26443   0.74129   0.00000  Uiso   1.00
C238   C     0.67770   0.35761   0.75468   0.00000  Uiso   1.00
C239   C     0.70669   0.51563   0.73356   0.00000  Uiso   1.00
C240   C     0.60522   0.11581   0.91848   0.00000  Uiso   1.00
C241   C     0.57111   0.10394   0.89958   0.00000  Uiso   1.00
C242   C     0.54968   0.12374   0.98537   0.00000  Uiso   1.00
C243   C     0.50458   0.14637   0.09776   0.00000  Uiso   1.00
C244   C     0.65567   0.15455   0.02215   0.00000  Uiso   1.00
C245   C     0.66879   0.04512   0.98604   0.00000  Uiso   1.00
C246   C     0.69054   0.97978   0.04376   0.00000  Uiso   1.00
C247   C     0.69958   0.88265   0.99684   0.00000  Uiso   1.00
C248   C     0.66522   0.23359   0.93349   0.00000  Uiso   1.00
C249   C     0.68396   0.32671   0.94702   0.00000  Uiso   1.00
C250   C     0.69000   0.38825   0.85586   0.00000  Uiso   1.00
C251   C     0.61750   0.14638   0.01948   0.00000  Uiso   1.00
C252   C     0.59612   0.16621   0.10531   0.00000  Uiso   1.00
C253   C     0.56198   0.15437   0.08655   0.00000  Uiso   1.00
H254   H     0.62350   0.07446   0.75756   0.00000  Uiso   1.00
H255   H     0.65602   0.89387   0.75986   0.00000  Uiso   1.00
H256   H     0.64944   0.24075   0.66314   0.00000  Uiso   1.00
H257   H     0.56161   0.08028   0.82141   0.00000  Uiso   1.00
H258   H     0.69749   0.70715   0.80693   0.00000  Uiso   1.00
H259   H     0.68361   0.43859   0.60300   0.00000  Uiso   1.00
H260   H     0.49841   0.10021   0.93673   0.00000  Uiso   1.00
H261   H     0.66523   0.17836   0.10078   0.00000  Uiso   1.00
H262   H     0.70004   0.00346   0.12192   0.00000  Uiso   1.00
H263   H     0.69346   0.35035   0.02519   0.00000  Uiso   1.00
H264   H     0.60564   0.18987   0.18346   0.00000  Uiso   1.00
H265   H     0.73323   0.79611   0.10079   0.00000  Uiso   1.00
H266   H     0.71934   0.52755   0.89685   0.00000  Uiso   1.00
H267   H     0.53414   0.18916   0.23059   0.00000  Uiso   1.00
O268   O     0.73751   0.63472   0.96155   0.00000  Uiso   1.00
O269   O     0.71930   0.59434   0.69400   0.00000  Uiso   1.00
O270   O     0.47632   0.15039   0.13186   0.00000  Uiso   1.00
N271   N     0.70112   0.75208   0.87320   0.00000  Uiso   1.00
N272   N     0.68815   0.43592   0.68253   0.00000  Uiso   1.00
N273   N     0.51500   0.11959   0.99454   0.00000  Uiso   1.00
N274   N     0.72035   0.79994   0.03132   0.00000  Uiso   1.00
N275   N     0.70737   0.48378   0.84065   0.00000  Uiso   1.00
N276   N     0.53423   0.16745   0.15266   0.00000  Uiso   1.00
C277   C     0.13306   0.90174   0.66380   0.00000  Uiso   1.00
C278   C     0.15651   0.98546   0.61496   0.00000  Uiso   1.00
C279   C     0.16552   0.08250   0.66197   0.00000  Uiso   1.00
C280   C     0.18728   0.14797   0.60435   0.00000  Uiso   1.00
C281   C     0.22184   0.28259   0.54389   0.00000  Uiso   1.00
C282   C     0.15294   0.79699   0.66751   0.00000  Uiso   1.00
C283   C     0.15895   0.73557   0.75871   0.00000  Uiso   1.00
C284   C     0.17770   0.64239   0.74532   0.00000  Uiso   1.00
C285   C     0.20669   0.48437   0.76644   0.00000  Uiso   1.00
C286   C     0.10522   0.88419   0.58152   0.00000  Uiso   1.00
C287   C     0.07111   0.89606   0.60042   0.00000  Uiso   1.00
C288   C     0.04968   0.87626   0.51463   0.00000  Uiso   1.00
C289   C     0.00458   0.85363   0.40224   0.00000  Uiso   1.00
C290   C     0.15567   0.84545   0.47785   0.00000  Uiso   1.00
C291   C     0.16879   0.95488   0.51396   0.00000  Uiso   1.00
C292   C     0.19054   0.02022   0.45624   0.00000  Uiso   1.00
C293   C     0.19958   0.11735   0.50316   0.00000  Uiso   1.00
C294   C     0.16522   0.76641   0.56651   0.00000  Uiso   1.00
C295   C     0.18396   0.67329   0.55298   0.00000  Uiso   1.00
C296   C     0.19000   0.61175   0.64414   0.00000  Uiso   1.00
C297   C     0.11750   0.85362   0.48052   0.00000  Uiso   1.00
C298   C     0.09612   0.83379   0.39469   0.00000  Uiso   1.00
C299   C     0.06198   0.84563   0.41345   0.00000  Uiso   1.00
H300   H     0.12350   0.92554   0.74244   0.00000  Uiso   1.00
H301   H     0.15602   0.10613   0.74014   0.00000  Uiso   1.00
H302   H     0.14944   0.75925   0.83686   0.00000  Uiso   1.00
H303   H     0.06161   0.91972   0.67859   0.00000  Uiso   1.00
H304   H     0.19749   0.29285   0.69307   0.00000  Uiso   1.00
H305   H     0.18361   0.56141   0.89700   0.00000  Uiso   1.00
H306   H     0.99841   0.89979   0.56327   0.00000  Uiso   1.00
H307   H     0.16523   0.82164   0.39922   0.00000  Uiso   1.00
H308   H     0.20004   0.99654   0.37808   0.00000  Uiso   1.00
H309   H     0.19346   0.64965   0.47481   0.00000  Uiso   1.00
H310   H     0.10564   0.81013   0.31654   0.00000  Uiso   1.00
H311   H     0.23323   0.20389   0.39921   0.00000  Uiso   1.00
H312   H     0.21934   0.47245   0.60315   0.00000  Uiso   1.00
H313   H     0.03414   0.81084   0.26941   0.00000  Uiso   1.00
O314   O     0.23751   0.36528   0.53845   0.00000  Uiso   1.00
O315   O     0.21930   0.40566   0.80600   0.00000  Uiso   1.00
O316   O     0.97632   0.84961   0.36814   0.00000  Uiso   1.00
N317   N     0.20112   0.24792   0.62680   0.00000  Uiso   1.00
N318   N     0.18815   0.56408   0.81747   0.00000  Uiso   1.00
N319   N     0.01500   0.88041   0.50546   0.00000  Uiso   1.00
N320   N     0.22035   0.20006   0.46868   0.00000  Uiso   1.00
N321   N     0.20737   0.51622   0.65935   0.00000  Uiso   1.00
N322   N     0.03423   0.83255   0.34734   0.00000  Uiso   1.00
C323   C     0.36694   0.09826   0.66380   0.00000  Uiso   1.00
C324   C     0.34349   0.01454   0.61496   0.00000  Uiso   1.00
C325   C     0.33448   0.91750   0.66197   0.00000  Uiso   1.00
C326   C     0.31272   0.85203   0.60435   0.00000  Uiso   1.00
C327   C     0.27816   0.71741   0.54389   0.00000  Uiso   1.00
C328   C     0.34706   0.20301   0.66751   0.00000  Uiso   1.00
C329   C     0.34105   0.26443   0.75871   0.00000  Uiso   1.00
C330   C     0.32230   0.35761   0.74532   0.00000  Uiso   1.00
C331   C     0.29331   0.51563   0.76644   0.00000  Uiso   1.00
C332   C     0.39478   0.11581   0.58152   0.00000  Uiso   1.00
C333   C     0.42889   0.10394   0.60042   0.00000  Uiso   1.00
C334   C     0.45032   0.12374   0.51463   0.00000  Uiso   1.00
C335   C     0.49542   0.14637   0.40224   0.00000  Uiso   1.00
C336   C     0.34433   0.15455   0.47785   0.00000  Uiso   1.00
C337   C     0.33121   0.04512   0.51396   0.00000  Uiso   1.00
C338   C     0.30946   0.97978   0.45624   0.00000  Uiso   1.00
C339   C     0.30042   0.88265   0.50316   0.00000  Uiso   1.00
C340   C     0.33478   0.23359   0.56651   0.00000  Uiso   1.00
C341   C     0.31604   0.32671   0.55298   0.00000  Uiso   1.00
C342   C     0.31000   0.38825   0.64414   0.00000  Uiso   1.00
C343   C     0.38250   0.14638   0.48052   0.00000  Uiso   1.00
C344   C     0.40388   0.16621   0.39469   0.00000  Uiso   1.00
C345   C     0.43802   0.15437   0.41345   0.00000  Uiso   1.00
H346   H     0.37650   0.07446   0.74244   0.00000  Uiso   1.00
H347   H     0.34398   0.89387   0.74014   0.00000  Uiso   1.00
H348   H     0.35056   0.24075   0.83686   0.00000  Uiso   1.00
H349   H     0.43839   0.08028   0.67859   0.00000  Uiso   1.00
H350   H     0.30251   0.70715   0.69307   0.00000  Uiso   1.00
H351   H     0.31639   0.43859   0.89700   0.00000  Uiso   1.00
H352   H     0.50159   0.10021   0.56327   0.00000  Uiso   1.00
H353   H     0.33477   0.17836   0.39922   0.00000  Uiso   1.00
H354   H     0.29996   0.00346   0.37808   0.00000  Uiso   1.00
H355   H     0.30654   0.35035   0.47481   0.00000  Uiso   1.00
H356   H     0.39436   0.18987   0.31654   0.00000  Uiso   1.00
H357   H     0.26677   0.79611   0.39921   0.00000  Uiso   1.00
H358   H     0.28066   0.52755   0.60315   0.00000  Uiso   1.00
H359   H     0.46586   0.18916   0.26941   0.00000  Uiso   1.00
O360   O     0.26249   0.63472   0.53845   0.00000  Uiso   1.00
O361   O     0.28070   0.59434   0.80600   0.00000  Uiso   1.00
O362   O     0.52368   0.15039   0.36814   0.00000  Uiso   1.00
N363   N     0.29888   0.75208   0.62680   0.00000  Uiso   1.00
N364   N     0.31185   0.43592   0.81747   0.00000  Uiso   1.00
N365   N     0.48500   0.11959   0.50546   0.00000  Uiso   1.00
N366   N     0.27965   0.79994   0.46868   0.00000  Uiso   1.00
N367   N     0.29263   0.48378   0.65935   0.00000  Uiso   1.00
N368   N     0.46577   0.16745   0.34734   0.00000  Uiso   1.00
