data_job_02797
_audit_creation_date              2018-12-19
_audit_creation_method            'Materials Studio'
_symmetry_space_group_name_H-M    'P1'
_symmetry_Int_Tables_number       1
_symmetry_cell_setting            triclinic
loop_
_symmetry_equiv_pos_as_xyz
  x,y,z
_cell_length_a                    15.1868
_cell_length_b                    12.4763
_cell_length_c                    31.0152
_cell_angle_alpha                 90.0000
_cell_angle_beta                  136.3017
_cell_angle_gamma                 90.0000
loop_
_atom_site_label
_atom_site_type_symbol
_atom_site_fract_x
_atom_site_fract_y
_atom_site_fract_z
_atom_site_U_iso_or_equiv
_atom_site_adp_type
_atom_site_occupancy
C1     C     0.85952   0.55180   0.79935   0.00000  Uiso   1.00
C2     C     0.99451   0.52973   0.86305   0.00000  Uiso   1.00
C3     C     0.10477   0.53771   0.87757   0.00000  Uiso   1.00
C4     C     0.21903   0.51414   0.93851   0.00000  Uiso   1.00
C5     C     0.42807   0.48445   0.03061   0.00000  Uiso   1.00
C6     C     0.78356   0.44998   0.78139   0.00000  Uiso   1.00
C7     C     0.71643   0.39094   0.72725   0.00000  Uiso   1.00
C8     C     0.65309   0.30024   0.71946   0.00000  Uiso   1.00
C9     C     0.53455   0.14680   0.68475   0.00000  Uiso   1.00
C10    C     0.80517   0.63724   0.81007   0.00000  Uiso   1.00
C11    C     0.75618   0.73564   0.78004   0.00000  Uiso   1.00
C12    C     0.71101   0.80259   0.79638   0.00000  Uiso   1.00
C13    C     0.62603   0.93990   0.80621   0.00000  Uiso   1.00
C14    C     0.86637   0.49573   0.88175   0.00000  Uiso   1.00
C15    C     0.99823   0.49927   0.90781   0.00000  Uiso   1.00
C16    C     0.11235   0.47568   0.96874   0.00000  Uiso   1.00
C17    C     0.22276   0.48363   0.98336   0.00000  Uiso   1.00
C18    C     0.78728   0.41953   0.82615   0.00000  Uiso   1.00
C19    C     0.72401   0.32890   0.81843   0.00000  Uiso   1.00
C20    C     0.65682   0.26973   0.76429   0.00000  Uiso   1.00
C21    C     0.80889   0.60679   0.85483   0.00000  Uiso   1.00
C22    C     0.76377   0.67360   0.87121   0.00000  Uiso   1.00
C23    C     0.71474   0.77208   0.84122   0.00000  Uiso   1.00
H24    H     0.85661   0.57550   0.76450   0.00000  Uiso   1.00
H25    H     0.10185   0.56127   0.84292   0.00000  Uiso   1.00
H26    H     0.71356   0.41453   0.69262   0.00000  Uiso   1.00
H27    H     0.75332   0.75918   0.74541   0.00000  Uiso   1.00
H28    H     0.37537   0.53203   0.94960   0.00000  Uiso   1.00
H29    H     0.55661   0.22264   0.63268   0.00000  Uiso   1.00
H30    H     0.64044   0.94939   0.74398   0.00000  Uiso   1.00
H31    H     0.86926   0.47202   0.91660   0.00000  Uiso   1.00
H32    H     0.11520   0.45211   0.00337   0.00000  Uiso   1.00
H33    H     0.72691   0.30537   0.85307   0.00000  Uiso   1.00
H34    H     0.76667   0.65001   0.90585   0.00000  Uiso   1.00
H35    H     0.38621   0.44343   0.07982   0.00000  Uiso   1.00
H36    H     0.56744   0.13403   0.76290   0.00000  Uiso   1.00
H37    H     0.65128   0.86078   0.87420   0.00000  Uiso   1.00
O38    O     0.54234   0.47647   0.06904   0.00000  Uiso   1.00
O39    O     0.46814   0.07057   0.65325   0.00000  Uiso   1.00
O40    O     0.57814   0.02405   0.79927   0.00000  Uiso   1.00
N41    N     0.34417   0.51393   0.96834   0.00000  Uiso   1.00
N42    N     0.57870   0.22465   0.67205   0.00000  Uiso   1.00
N43    N     0.65704   0.90410   0.77609   0.00000  Uiso   1.00
N44    N     0.35000   0.46626   0.03841   0.00000  Uiso   1.00
N45    N     0.58453   0.17698   0.74212   0.00000  Uiso   1.00
N46    N     0.66287   0.85642   0.84616   0.00000  Uiso   1.00
C47    C     0.14048   0.05180   0.70065   0.00000  Uiso   1.00
C48    C     0.00549   0.02973   0.63695   0.00000  Uiso   1.00
C49    C     0.89523   0.03771   0.62243   0.00000  Uiso   1.00
C50    C     0.78097   0.01414   0.56149   0.00000  Uiso   1.00
C51    C     0.57193   0.98445   0.46939   0.00000  Uiso   1.00
C52    C     0.21644   0.94998   0.71861   0.00000  Uiso   1.00
C53    C     0.28357   0.89094   0.77275   0.00000  Uiso   1.00
C54    C     0.34691   0.80024   0.78054   0.00000  Uiso   1.00
C55    C     0.46545   0.64680   0.81525   0.00000  Uiso   1.00
C56    C     0.19483   0.13724   0.68993   0.00000  Uiso   1.00
C57    C     0.24382   0.23564   0.71996   0.00000  Uiso   1.00
C58    C     0.28899   0.30259   0.70362   0.00000  Uiso   1.00
C59    C     0.37397   0.43990   0.69379   0.00000  Uiso   1.00
C60    C     0.13363   0.99573   0.61825   0.00000  Uiso   1.00
C61    C     0.00177   0.99927   0.59219   0.00000  Uiso   1.00
C62    C     0.88765   0.97568   0.53126   0.00000  Uiso   1.00
C63    C     0.77724   0.98363   0.51664   0.00000  Uiso   1.00
C64    C     0.21272   0.91953   0.67385   0.00000  Uiso   1.00
C65    C     0.27599   0.82890   0.68157   0.00000  Uiso   1.00
C66    C     0.34318   0.76973   0.73571   0.00000  Uiso   1.00
C67    C     0.19111   0.10679   0.64517   0.00000  Uiso   1.00
C68    C     0.23623   0.17360   0.62879   0.00000  Uiso   1.00
C69    C     0.28526   0.27208   0.65878   0.00000  Uiso   1.00
H70    H     0.14339   0.07550   0.73550   0.00000  Uiso   1.00
H71    H     0.89815   0.06127   0.65708   0.00000  Uiso   1.00
H72    H     0.28644   0.91453   0.80738   0.00000  Uiso   1.00
H73    H     0.24668   0.25918   0.75459   0.00000  Uiso   1.00
H74    H     0.62463   0.03203   0.55040   0.00000  Uiso   1.00
H75    H     0.44339   0.72264   0.86732   0.00000  Uiso   1.00
H76    H     0.35956   0.44939   0.75602   0.00000  Uiso   1.00
H77    H     0.13074   0.97202   0.58340   0.00000  Uiso   1.00
H78    H     0.88480   0.95211   0.49663   0.00000  Uiso   1.00
H79    H     0.27309   0.80537   0.64693   0.00000  Uiso   1.00
H80    H     0.23333   0.15001   0.59415   0.00000  Uiso   1.00
H81    H     0.61379   0.94343   0.42018   0.00000  Uiso   1.00
H82    H     0.43256   0.63403   0.73710   0.00000  Uiso   1.00
H83    H     0.34872   0.36078   0.62580   0.00000  Uiso   1.00
O84    O     0.45766   0.97647   0.43096   0.00000  Uiso   1.00
O85    O     0.53186   0.57057   0.84675   0.00000  Uiso   1.00
O86    O     0.42186   0.52405   0.70073   0.00000  Uiso   1.00
N87    N     0.65583   0.01393   0.53166   0.00000  Uiso   1.00
N88    N     0.42130   0.72465   0.82795   0.00000  Uiso   1.00
N89    N     0.34296   0.40410   0.72391   0.00000  Uiso   1.00
N90    N     0.65000   0.96626   0.46159   0.00000  Uiso   1.00
N91    N     0.41547   0.67698   0.75788   0.00000  Uiso   1.00
N92    N     0.33713   0.35642   0.65384   0.00000  Uiso   1.00
C93    C     0.14048   0.44820   0.20065   0.00000  Uiso   1.00
C94    C     0.00549   0.47027   0.13695   0.00000  Uiso   1.00
C95    C     0.89523   0.46229   0.12243   0.00000  Uiso   1.00
C96    C     0.78097   0.48586   0.06149   0.00000  Uiso   1.00
C97    C     0.57193   0.51555   0.96939   0.00000  Uiso   1.00
C98    C     0.21644   0.55002   0.21861   0.00000  Uiso   1.00
C99    C     0.28357   0.60906   0.27275   0.00000  Uiso   1.00
C100   C     0.34691   0.69976   0.28054   0.00000  Uiso   1.00
C101   C     0.46545   0.85320   0.31525   0.00000  Uiso   1.00
C102   C     0.19483   0.36276   0.18993   0.00000  Uiso   1.00
C103   C     0.24382   0.26436   0.21996   0.00000  Uiso   1.00
C104   C     0.28899   0.19741   0.20362   0.00000  Uiso   1.00
C105   C     0.37397   0.06010   0.19379   0.00000  Uiso   1.00
C106   C     0.13363   0.50427   0.11825   0.00000  Uiso   1.00
C107   C     0.00177   0.50073   0.09219   0.00000  Uiso   1.00
C108   C     0.88765   0.52432   0.03126   0.00000  Uiso   1.00
C109   C     0.77724   0.51637   0.01664   0.00000  Uiso   1.00
C110   C     0.21272   0.58047   0.17385   0.00000  Uiso   1.00
C111   C     0.27599   0.67110   0.18157   0.00000  Uiso   1.00
C112   C     0.34318   0.73027   0.23571   0.00000  Uiso   1.00
C113   C     0.19111   0.39321   0.14517   0.00000  Uiso   1.00
C114   C     0.23623   0.32640   0.12879   0.00000  Uiso   1.00
C115   C     0.28526   0.22792   0.15878   0.00000  Uiso   1.00
H116   H     0.14339   0.42450   0.23550   0.00000  Uiso   1.00
H117   H     0.89815   0.43873   0.15708   0.00000  Uiso   1.00
H118   H     0.28644   0.58547   0.30738   0.00000  Uiso   1.00
H119   H     0.24668   0.24082   0.25459   0.00000  Uiso   1.00
H120   H     0.62463   0.46797   0.05040   0.00000  Uiso   1.00
H121   H     0.44339   0.77736   0.36732   0.00000  Uiso   1.00
H122   H     0.35956   0.05061   0.25602   0.00000  Uiso   1.00
H123   H     0.13074   0.52798   0.08340   0.00000  Uiso   1.00
H124   H     0.88480   0.54789   0.99663   0.00000  Uiso   1.00
H125   H     0.27309   0.69463   0.14693   0.00000  Uiso   1.00
H126   H     0.23333   0.34999   0.09415   0.00000  Uiso   1.00
H127   H     0.61379   0.55657   0.92018   0.00000  Uiso   1.00
H128   H     0.43256   0.86597   0.23710   0.00000  Uiso   1.00
H129   H     0.34872   0.13922   0.12580   0.00000  Uiso   1.00
O130   O     0.45766   0.52353   0.93096   0.00000  Uiso   1.00
O131   O     0.53186   0.92943   0.34675   0.00000  Uiso   1.00
O132   O     0.42186   0.97595   0.20073   0.00000  Uiso   1.00
N133   N     0.65583   0.48607   0.03166   0.00000  Uiso   1.00
N134   N     0.42130   0.77535   0.32795   0.00000  Uiso   1.00
N135   N     0.34296   0.09590   0.22391   0.00000  Uiso   1.00
N136   N     0.65000   0.53374   0.96159   0.00000  Uiso   1.00
N137   N     0.41547   0.82302   0.25788   0.00000  Uiso   1.00
N138   N     0.33713   0.14358   0.15384   0.00000  Uiso   1.00
C139   C     0.85952   0.94820   0.29935   0.00000  Uiso   1.00
C140   C     0.99451   0.97027   0.36305   0.00000  Uiso   1.00
C141   C     0.10477   0.96229   0.37757   0.00000  Uiso   1.00
C142   C     0.21903   0.98586   0.43851   0.00000  Uiso   1.00
C143   C     0.42807   0.01555   0.53061   0.00000  Uiso   1.00
C144   C     0.78356   0.05002   0.28139   0.00000  Uiso   1.00
C145   C     0.71643   0.10906   0.22725   0.00000  Uiso   1.00
C146   C     0.65309   0.19976   0.21946   0.00000  Uiso   1.00
C147   C     0.53455   0.35320   0.18475   0.00000  Uiso   1.00
C148   C     0.80517   0.86276   0.31007   0.00000  Uiso   1.00
C149   C     0.75618   0.76436   0.28004   0.00000  Uiso   1.00
C150   C     0.71101   0.69741   0.29638   0.00000  Uiso   1.00
C151   C     0.62603   0.56010   0.30621   0.00000  Uiso   1.00
C152   C     0.86637   0.00427   0.38175   0.00000  Uiso   1.00
C153   C     0.99823   0.00073   0.40781   0.00000  Uiso   1.00
C154   C     0.11235   0.02432   0.46874   0.00000  Uiso   1.00
C155   C     0.22276   0.01637   0.48336   0.00000  Uiso   1.00
C156   C     0.78728   0.08047   0.32615   0.00000  Uiso   1.00
C157   C     0.72401   0.17110   0.31843   0.00000  Uiso   1.00
C158   C     0.65682   0.23027   0.26429   0.00000  Uiso   1.00
C159   C     0.80889   0.89321   0.35483   0.00000  Uiso   1.00
C160   C     0.76377   0.82640   0.37121   0.00000  Uiso   1.00
C161   C     0.71474   0.72792   0.34122   0.00000  Uiso   1.00
H162   H     0.85661   0.92450   0.26450   0.00000  Uiso   1.00
H163   H     0.10185   0.93873   0.34292   0.00000  Uiso   1.00
H164   H     0.71356   0.08547   0.19262   0.00000  Uiso   1.00
H165   H     0.75332   0.74082   0.24541   0.00000  Uiso   1.00
H166   H     0.37537   0.96797   0.44960   0.00000  Uiso   1.00
H167   H     0.55661   0.27736   0.13268   0.00000  Uiso   1.00
H168   H     0.64044   0.55061   0.24398   0.00000  Uiso   1.00
H169   H     0.86926   0.02798   0.41660   0.00000  Uiso   1.00
H170   H     0.11520   0.04789   0.50337   0.00000  Uiso   1.00
H171   H     0.72691   0.19463   0.35307   0.00000  Uiso   1.00
H172   H     0.76667   0.84999   0.40585   0.00000  Uiso   1.00
H173   H     0.38621   0.05657   0.57982   0.00000  Uiso   1.00
H174   H     0.56744   0.36597   0.26290   0.00000  Uiso   1.00
H175   H     0.65128   0.63922   0.37420   0.00000  Uiso   1.00
O176   O     0.54234   0.02353   0.56904   0.00000  Uiso   1.00
O177   O     0.46814   0.42943   0.15325   0.00000  Uiso   1.00
O178   O     0.57814   0.47595   0.29927   0.00000  Uiso   1.00
N179   N     0.34417   0.98607   0.46834   0.00000  Uiso   1.00
N180   N     0.57870   0.27535   0.17205   0.00000  Uiso   1.00
N181   N     0.65704   0.59590   0.27609   0.00000  Uiso   1.00
N182   N     0.35000   0.03374   0.53841   0.00000  Uiso   1.00
N183   N     0.58453   0.32302   0.24212   0.00000  Uiso   1.00
N184   N     0.66287   0.64358   0.34616   0.00000  Uiso   1.00
