data_job_03686
_audit_creation_date              2018-12-19
_audit_creation_method            'Materials Studio'
_symmetry_space_group_name_H-M    'P1'
_symmetry_Int_Tables_number       1
_symmetry_cell_setting            triclinic
loop_
_symmetry_equiv_pos_as_xyz
  x,y,z
_cell_length_a                    21.7421
_cell_length_b                    8.5470
_cell_length_c                    30.1080
_cell_angle_alpha                 90.0000
_cell_angle_beta                  101.0670
_cell_angle_gamma                 90.0000
loop_
_atom_site_label
_atom_site_type_symbol
_atom_site_fract_x
_atom_site_fract_y
_atom_site_fract_z
_atom_site_U_iso_or_equiv
_atom_site_adp_type
_atom_site_occupancy
C1     C     0.64373   0.42364   0.17572   0.00000  Uiso   1.00
C2     C     0.64589   0.55174   0.14079   0.00000  Uiso   1.00
C3     C     0.68176   0.54892   0.10733   0.00000  Uiso   1.00
C4     C     0.67720   0.67751   0.07870   0.00000  Uiso   1.00
C5     C     0.68650   0.85717   0.02378   0.00000  Uiso   1.00
C6     C     0.66099   0.50249   0.22187   0.00000  Uiso   1.00
C7     C     0.70956   0.45823   0.25657   0.00000  Uiso   1.00
C8     C     0.71770   0.54534   0.29619   0.00000  Uiso   1.00
C9     C     0.75042   0.64846   0.36714   0.00000  Uiso   1.00
C10    C     0.57506   0.37662   0.17043   0.00000  Uiso   1.00
C11    C     0.55137   0.22653   0.16190   0.00000  Uiso   1.00
C12    C     0.48716   0.20766   0.15823   0.00000  Uiso   1.00
C13    C     0.38647   0.11536   0.14933   0.00000  Uiso   1.00
C14    C     0.57183   0.65701   0.18439   0.00000  Uiso   1.00
C15    C     0.60683   0.67850   0.14551   0.00000  Uiso   1.00
C16    C     0.60221   0.80712   0.11692   0.00000  Uiso   1.00
C17    C     0.63807   0.80449   0.08342   0.00000  Uiso   1.00
C18    C     0.62193   0.62924   0.22658   0.00000  Uiso   1.00
C19    C     0.63000   0.71643   0.26616   0.00000  Uiso   1.00
C20    C     0.67857   0.67232   0.30091   0.00000  Uiso   1.00
C21    C     0.53600   0.50338   0.17514   0.00000  Uiso   1.00
C22    C     0.47182   0.48474   0.17149   0.00000  Uiso   1.00
C23    C     0.44804   0.33465   0.16295   0.00000  Uiso   1.00
H24    H     0.67414   0.32495   0.17205   0.00000  Uiso   1.00
H25    H     0.71199   0.45081   0.10370   0.00000  Uiso   1.00
H26    H     0.73977   0.36012   0.25291   0.00000  Uiso   1.00
H27    H     0.58161   0.12847   0.15826   0.00000  Uiso   1.00
H28    H     0.73674   0.64627   0.03000   0.00000  Uiso   1.00
H29    H     0.79531   0.45502   0.34463   0.00000  Uiso   1.00
H30    H     0.46180   0.96652   0.14504   0.00000  Uiso   1.00
H31    H     0.54142   0.75570   0.18805   0.00000  Uiso   1.00
H32    H     0.57198   0.90520   0.12057   0.00000  Uiso   1.00
H33    H     0.59977   0.81451   0.26979   0.00000  Uiso   1.00
H34    H     0.44161   0.58286   0.17514   0.00000  Uiso   1.00
H35    H     0.62310   0.01507   0.04370   0.00000  Uiso   1.00
H36    H     0.68167   0.82381   0.35834   0.00000  Uiso   1.00
H37    H     0.34816   0.33533   0.15874   0.00000  Uiso   1.00
O38    O     0.70243   0.92127   0.99218   0.00000  Uiso   1.00
O39    O     0.77927   0.67032   0.40497   0.00000  Uiso   1.00
O40    O     0.34171   0.02944   0.14311   0.00000  Uiso   1.00
N41    N     0.70579   0.71254   0.04248   0.00000  Uiso   1.00
N42    N     0.76056   0.53374   0.33664   0.00000  Uiso   1.00
N43    N     0.44875   0.07703   0.15005   0.00000  Uiso   1.00
N44    N     0.64464   0.91099   0.04985   0.00000  Uiso   1.00
N45    N     0.69941   0.73219   0.34401   0.00000  Uiso   1.00
N46    N     0.38761   0.27548   0.15742   0.00000  Uiso   1.00
C47    C     0.14373   0.92364   0.17572   0.00000  Uiso   1.00
C48    C     0.14589   0.05174   0.14079   0.00000  Uiso   1.00
C49    C     0.18176   0.04892   0.10733   0.00000  Uiso   1.00
C50    C     0.17720   0.17751   0.07870   0.00000  Uiso   1.00
C51    C     0.18650   0.35717   0.02378   0.00000  Uiso   1.00
C52    C     0.16099   0.00249   0.22187   0.00000  Uiso   1.00
C53    C     0.20956   0.95823   0.25657   0.00000  Uiso   1.00
C54    C     0.21770   0.04534   0.29619   0.00000  Uiso   1.00
C55    C     0.25042   0.14846   0.36714   0.00000  Uiso   1.00
C56    C     0.07506   0.87662   0.17043   0.00000  Uiso   1.00
C57    C     0.05137   0.72653   0.16190   0.00000  Uiso   1.00
C58    C     0.98716   0.70766   0.15823   0.00000  Uiso   1.00
C59    C     0.88647   0.61536   0.14933   0.00000  Uiso   1.00
C60    C     0.07183   0.15701   0.18439   0.00000  Uiso   1.00
C61    C     0.10683   0.17850   0.14551   0.00000  Uiso   1.00
C62    C     0.10221   0.30712   0.11692   0.00000  Uiso   1.00
C63    C     0.13807   0.30449   0.08342   0.00000  Uiso   1.00
C64    C     0.12193   0.12924   0.22658   0.00000  Uiso   1.00
C65    C     0.13000   0.21643   0.26616   0.00000  Uiso   1.00
C66    C     0.17857   0.17232   0.30091   0.00000  Uiso   1.00
C67    C     0.03600   0.00338   0.17514   0.00000  Uiso   1.00
C68    C     0.97182   0.98474   0.17149   0.00000  Uiso   1.00
C69    C     0.94804   0.83465   0.16295   0.00000  Uiso   1.00
H70    H     0.17414   0.82495   0.17205   0.00000  Uiso   1.00
H71    H     0.21199   0.95081   0.10370   0.00000  Uiso   1.00
H72    H     0.23977   0.86012   0.25291   0.00000  Uiso   1.00
H73    H     0.08161   0.62847   0.15826   0.00000  Uiso   1.00
H74    H     0.23674   0.14627   0.03000   0.00000  Uiso   1.00
H75    H     0.29531   0.95502   0.34463   0.00000  Uiso   1.00
H76    H     0.96180   0.46652   0.14504   0.00000  Uiso   1.00
H77    H     0.04142   0.25570   0.18805   0.00000  Uiso   1.00
H78    H     0.07198   0.40520   0.12057   0.00000  Uiso   1.00
H79    H     0.09977   0.31451   0.26979   0.00000  Uiso   1.00
H80    H     0.94161   0.08286   0.17514   0.00000  Uiso   1.00
H81    H     0.12310   0.51507   0.04370   0.00000  Uiso   1.00
H82    H     0.18167   0.32381   0.35834   0.00000  Uiso   1.00
H83    H     0.84816   0.83533   0.15874   0.00000  Uiso   1.00
O84    O     0.20243   0.42127   0.99218   0.00000  Uiso   1.00
O85    O     0.27927   0.17032   0.40497   0.00000  Uiso   1.00
O86    O     0.84171   0.52944   0.14311   0.00000  Uiso   1.00
N87    N     0.20579   0.21254   0.04248   0.00000  Uiso   1.00
N88    N     0.26056   0.03374   0.33664   0.00000  Uiso   1.00
N89    N     0.94875   0.57703   0.15005   0.00000  Uiso   1.00
N90    N     0.14464   0.41099   0.04985   0.00000  Uiso   1.00
N91    N     0.19941   0.23219   0.34401   0.00000  Uiso   1.00
N92    N     0.88761   0.77548   0.15742   0.00000  Uiso   1.00
C93    C     0.35627   0.42364   0.32428   0.00000  Uiso   1.00
C94    C     0.35411   0.55174   0.35921   0.00000  Uiso   1.00
C95    C     0.31824   0.54892   0.39267   0.00000  Uiso   1.00
C96    C     0.32280   0.67751   0.42130   0.00000  Uiso   1.00
C97    C     0.31350   0.85717   0.47622   0.00000  Uiso   1.00
C98    C     0.33901   0.50249   0.27813   0.00000  Uiso   1.00
C99    C     0.29044   0.45823   0.24343   0.00000  Uiso   1.00
C100   C     0.28230   0.54534   0.20381   0.00000  Uiso   1.00
C101   C     0.24958   0.64846   0.13286   0.00000  Uiso   1.00
C102   C     0.42494   0.37662   0.32957   0.00000  Uiso   1.00
C103   C     0.44863   0.22653   0.33810   0.00000  Uiso   1.00
C104   C     0.51284   0.20766   0.34177   0.00000  Uiso   1.00
C105   C     0.61353   0.11536   0.35067   0.00000  Uiso   1.00
C106   C     0.42817   0.65701   0.31561   0.00000  Uiso   1.00
C107   C     0.39317   0.67850   0.35449   0.00000  Uiso   1.00
C108   C     0.39779   0.80712   0.38308   0.00000  Uiso   1.00
C109   C     0.36193   0.80449   0.41658   0.00000  Uiso   1.00
C110   C     0.37807   0.62924   0.27342   0.00000  Uiso   1.00
C111   C     0.37000   0.71643   0.23384   0.00000  Uiso   1.00
C112   C     0.32143   0.67232   0.19909   0.00000  Uiso   1.00
C113   C     0.46400   0.50338   0.32486   0.00000  Uiso   1.00
C114   C     0.52818   0.48474   0.32851   0.00000  Uiso   1.00
C115   C     0.55196   0.33465   0.33705   0.00000  Uiso   1.00
H116   H     0.32586   0.32495   0.32795   0.00000  Uiso   1.00
H117   H     0.28801   0.45081   0.39630   0.00000  Uiso   1.00
H118   H     0.26023   0.36012   0.24709   0.00000  Uiso   1.00
H119   H     0.41839   0.12847   0.34174   0.00000  Uiso   1.00
H120   H     0.26326   0.64627   0.47000   0.00000  Uiso   1.00
H121   H     0.20469   0.45502   0.15537   0.00000  Uiso   1.00
H122   H     0.53820   0.96652   0.35496   0.00000  Uiso   1.00
H123   H     0.45858   0.75570   0.31195   0.00000  Uiso   1.00
H124   H     0.42802   0.90520   0.37943   0.00000  Uiso   1.00
H125   H     0.40023   0.81451   0.23021   0.00000  Uiso   1.00
H126   H     0.55839   0.58286   0.32486   0.00000  Uiso   1.00
H127   H     0.37690   0.01507   0.45630   0.00000  Uiso   1.00
H128   H     0.31833   0.82381   0.14166   0.00000  Uiso   1.00
H129   H     0.65184   0.33533   0.34126   0.00000  Uiso   1.00
O130   O     0.29757   0.92127   0.50782   0.00000  Uiso   1.00
O131   O     0.22073   0.67032   0.09503   0.00000  Uiso   1.00
O132   O     0.65829   0.02944   0.35689   0.00000  Uiso   1.00
N133   N     0.29421   0.71254   0.45752   0.00000  Uiso   1.00
N134   N     0.23944   0.53374   0.16336   0.00000  Uiso   1.00
N135   N     0.55125   0.07703   0.34995   0.00000  Uiso   1.00
N136   N     0.35536   0.91099   0.45015   0.00000  Uiso   1.00
N137   N     0.30059   0.73219   0.15599   0.00000  Uiso   1.00
N138   N     0.61239   0.27548   0.34258   0.00000  Uiso   1.00
C139   C     0.85627   0.92364   0.32428   0.00000  Uiso   1.00
C140   C     0.85411   0.05174   0.35921   0.00000  Uiso   1.00
C141   C     0.81824   0.04892   0.39267   0.00000  Uiso   1.00
C142   C     0.82280   0.17751   0.42130   0.00000  Uiso   1.00
C143   C     0.81350   0.35717   0.47622   0.00000  Uiso   1.00
C144   C     0.83901   0.00249   0.27813   0.00000  Uiso   1.00
C145   C     0.79044   0.95823   0.24343   0.00000  Uiso   1.00
C146   C     0.78230   0.04534   0.20381   0.00000  Uiso   1.00
C147   C     0.74958   0.14846   0.13286   0.00000  Uiso   1.00
C148   C     0.92494   0.87662   0.32957   0.00000  Uiso   1.00
C149   C     0.94863   0.72653   0.33810   0.00000  Uiso   1.00
C150   C     0.01284   0.70766   0.34177   0.00000  Uiso   1.00
C151   C     0.11353   0.61536   0.35067   0.00000  Uiso   1.00
C152   C     0.92817   0.15701   0.31561   0.00000  Uiso   1.00
C153   C     0.89317   0.17850   0.35449   0.00000  Uiso   1.00
C154   C     0.89779   0.30712   0.38308   0.00000  Uiso   1.00
C155   C     0.86193   0.30449   0.41658   0.00000  Uiso   1.00
C156   C     0.87807   0.12924   0.27342   0.00000  Uiso   1.00
C157   C     0.87000   0.21643   0.23384   0.00000  Uiso   1.00
C158   C     0.82143   0.17232   0.19909   0.00000  Uiso   1.00
C159   C     0.96400   0.00338   0.32486   0.00000  Uiso   1.00
C160   C     0.02818   0.98474   0.32851   0.00000  Uiso   1.00
C161   C     0.05196   0.83465   0.33705   0.00000  Uiso   1.00
H162   H     0.82586   0.82495   0.32795   0.00000  Uiso   1.00
H163   H     0.78801   0.95081   0.39630   0.00000  Uiso   1.00
H164   H     0.76023   0.86012   0.24709   0.00000  Uiso   1.00
H165   H     0.91839   0.62847   0.34174   0.00000  Uiso   1.00
H166   H     0.76326   0.14627   0.47000   0.00000  Uiso   1.00
H167   H     0.70469   0.95502   0.15537   0.00000  Uiso   1.00
H168   H     0.03820   0.46652   0.35496   0.00000  Uiso   1.00
H169   H     0.95858   0.25570   0.31195   0.00000  Uiso   1.00
H170   H     0.92802   0.40520   0.37943   0.00000  Uiso   1.00
H171   H     0.90023   0.31451   0.23021   0.00000  Uiso   1.00
H172   H     0.05839   0.08286   0.32486   0.00000  Uiso   1.00
H173   H     0.87690   0.51507   0.45630   0.00000  Uiso   1.00
H174   H     0.81833   0.32381   0.14166   0.00000  Uiso   1.00
H175   H     0.15184   0.83533   0.34126   0.00000  Uiso   1.00
O176   O     0.79757   0.42127   0.50782   0.00000  Uiso   1.00
O177   O     0.72073   0.17032   0.09503   0.00000  Uiso   1.00
O178   O     0.15829   0.52944   0.35689   0.00000  Uiso   1.00
N179   N     0.79421   0.21254   0.45752   0.00000  Uiso   1.00
N180   N     0.73944   0.03374   0.16336   0.00000  Uiso   1.00
N181   N     0.05125   0.57703   0.34995   0.00000  Uiso   1.00
N182   N     0.85536   0.41099   0.45015   0.00000  Uiso   1.00
N183   N     0.80059   0.23219   0.15599   0.00000  Uiso   1.00
N184   N     0.11239   0.77548   0.34258   0.00000  Uiso   1.00
C185   C     0.35627   0.57636   0.82428   0.00000  Uiso   1.00
C186   C     0.35411   0.44826   0.85921   0.00000  Uiso   1.00
C187   C     0.31824   0.45108   0.89267   0.00000  Uiso   1.00
C188   C     0.32280   0.32249   0.92130   0.00000  Uiso   1.00
C189   C     0.31350   0.14283   0.97622   0.00000  Uiso   1.00
C190   C     0.33901   0.49751   0.77813   0.00000  Uiso   1.00
C191   C     0.29044   0.54177   0.74343   0.00000  Uiso   1.00
C192   C     0.28230   0.45466   0.70381   0.00000  Uiso   1.00
C193   C     0.24958   0.35154   0.63286   0.00000  Uiso   1.00
C194   C     0.42494   0.62338   0.82957   0.00000  Uiso   1.00
C195   C     0.44863   0.77347   0.83810   0.00000  Uiso   1.00
C196   C     0.51284   0.79234   0.84177   0.00000  Uiso   1.00
C197   C     0.61353   0.88464   0.85067   0.00000  Uiso   1.00
C198   C     0.42817   0.34299   0.81561   0.00000  Uiso   1.00
C199   C     0.39317   0.32150   0.85449   0.00000  Uiso   1.00
C200   C     0.39779   0.19288   0.88308   0.00000  Uiso   1.00
C201   C     0.36193   0.19551   0.91658   0.00000  Uiso   1.00
C202   C     0.37807   0.37076   0.77342   0.00000  Uiso   1.00
C203   C     0.37000   0.28357   0.73384   0.00000  Uiso   1.00
C204   C     0.32143   0.32768   0.69909   0.00000  Uiso   1.00
C205   C     0.46400   0.49662   0.82486   0.00000  Uiso   1.00
C206   C     0.52818   0.51526   0.82851   0.00000  Uiso   1.00
C207   C     0.55196   0.66535   0.83705   0.00000  Uiso   1.00
H208   H     0.32586   0.67505   0.82795   0.00000  Uiso   1.00
H209   H     0.28801   0.54919   0.89630   0.00000  Uiso   1.00
H210   H     0.26023   0.63988   0.74709   0.00000  Uiso   1.00
H211   H     0.41839   0.87153   0.84174   0.00000  Uiso   1.00
H212   H     0.26326   0.35373   0.97000   0.00000  Uiso   1.00
H213   H     0.20469   0.54498   0.65537   0.00000  Uiso   1.00
H214   H     0.53820   0.03348   0.85496   0.00000  Uiso   1.00
H215   H     0.45858   0.24430   0.81195   0.00000  Uiso   1.00
H216   H     0.42802   0.09480   0.87943   0.00000  Uiso   1.00
H217   H     0.40023   0.18549   0.73021   0.00000  Uiso   1.00
H218   H     0.55839   0.41714   0.82486   0.00000  Uiso   1.00
H219   H     0.37690   0.98493   0.95630   0.00000  Uiso   1.00
H220   H     0.31833   0.17619   0.64166   0.00000  Uiso   1.00
H221   H     0.65184   0.66467   0.84126   0.00000  Uiso   1.00
O222   O     0.29757   0.07873   0.00782   0.00000  Uiso   1.00
O223   O     0.22073   0.32968   0.59503   0.00000  Uiso   1.00
O224   O     0.65829   0.97056   0.85689   0.00000  Uiso   1.00
N225   N     0.29421   0.28746   0.95752   0.00000  Uiso   1.00
N226   N     0.23944   0.46626   0.66336   0.00000  Uiso   1.00
N227   N     0.55125   0.92297   0.84995   0.00000  Uiso   1.00
N228   N     0.35536   0.08901   0.95015   0.00000  Uiso   1.00
N229   N     0.30059   0.26781   0.65599   0.00000  Uiso   1.00
N230   N     0.61239   0.72452   0.84258   0.00000  Uiso   1.00
C231   C     0.85627   0.07636   0.82428   0.00000  Uiso   1.00
C232   C     0.85411   0.94826   0.85921   0.00000  Uiso   1.00
C233   C     0.81824   0.95108   0.89267   0.00000  Uiso   1.00
C234   C     0.82280   0.82249   0.92130   0.00000  Uiso   1.00
C235   C     0.81350   0.64283   0.97622   0.00000  Uiso   1.00
C236   C     0.83901   0.99751   0.77813   0.00000  Uiso   1.00
C237   C     0.79044   0.04177   0.74343   0.00000  Uiso   1.00
C238   C     0.78230   0.95466   0.70381   0.00000  Uiso   1.00
C239   C     0.74958   0.85154   0.63286   0.00000  Uiso   1.00
C240   C     0.92494   0.12338   0.82957   0.00000  Uiso   1.00
C241   C     0.94863   0.27347   0.83810   0.00000  Uiso   1.00
C242   C     0.01284   0.29234   0.84177   0.00000  Uiso   1.00
C243   C     0.11353   0.38464   0.85067   0.00000  Uiso   1.00
C244   C     0.92817   0.84299   0.81561   0.00000  Uiso   1.00
C245   C     0.89317   0.82150   0.85449   0.00000  Uiso   1.00
C246   C     0.89779   0.69288   0.88308   0.00000  Uiso   1.00
C247   C     0.86193   0.69551   0.91658   0.00000  Uiso   1.00
C248   C     0.87807   0.87076   0.77342   0.00000  Uiso   1.00
C249   C     0.87000   0.78357   0.73384   0.00000  Uiso   1.00
C250   C     0.82143   0.82768   0.69909   0.00000  Uiso   1.00
C251   C     0.96400   0.99662   0.82486   0.00000  Uiso   1.00
C252   C     0.02818   0.01526   0.82851   0.00000  Uiso   1.00
C253   C     0.05196   0.16535   0.83705   0.00000  Uiso   1.00
H254   H     0.82586   0.17505   0.82795   0.00000  Uiso   1.00
H255   H     0.78801   0.04919   0.89630   0.00000  Uiso   1.00
H256   H     0.76023   0.13988   0.74709   0.00000  Uiso   1.00
H257   H     0.91839   0.37153   0.84174   0.00000  Uiso   1.00
H258   H     0.76326   0.85373   0.97000   0.00000  Uiso   1.00
H259   H     0.70469   0.04498   0.65537   0.00000  Uiso   1.00
H260   H     0.03820   0.53348   0.85496   0.00000  Uiso   1.00
H261   H     0.95858   0.74430   0.81195   0.00000  Uiso   1.00
H262   H     0.92802   0.59480   0.87943   0.00000  Uiso   1.00
H263   H     0.90023   0.68549   0.73021   0.00000  Uiso   1.00
H264   H     0.05839   0.91714   0.82486   0.00000  Uiso   1.00
H265   H     0.87690   0.48493   0.95630   0.00000  Uiso   1.00
H266   H     0.81833   0.67619   0.64166   0.00000  Uiso   1.00
H267   H     0.15184   0.16467   0.84126   0.00000  Uiso   1.00
O268   O     0.79757   0.57873   0.00782   0.00000  Uiso   1.00
O269   O     0.72073   0.82968   0.59503   0.00000  Uiso   1.00
O270   O     0.15829   0.47056   0.85689   0.00000  Uiso   1.00
N271   N     0.79421   0.78746   0.95752   0.00000  Uiso   1.00
N272   N     0.73944   0.96626   0.66336   0.00000  Uiso   1.00
N273   N     0.05125   0.42297   0.84995   0.00000  Uiso   1.00
N274   N     0.85536   0.58901   0.95015   0.00000  Uiso   1.00
N275   N     0.80059   0.76781   0.65599   0.00000  Uiso   1.00
N276   N     0.11239   0.22452   0.84258   0.00000  Uiso   1.00
C277   C     0.64373   0.57636   0.67572   0.00000  Uiso   1.00
C278   C     0.64589   0.44826   0.64079   0.00000  Uiso   1.00
C279   C     0.68176   0.45108   0.60733   0.00000  Uiso   1.00
C280   C     0.67720   0.32249   0.57870   0.00000  Uiso   1.00
C281   C     0.68650   0.14283   0.52378   0.00000  Uiso   1.00
C282   C     0.66099   0.49751   0.72187   0.00000  Uiso   1.00
C283   C     0.70956   0.54177   0.75657   0.00000  Uiso   1.00
C284   C     0.71770   0.45466   0.79619   0.00000  Uiso   1.00
C285   C     0.75042   0.35154   0.86714   0.00000  Uiso   1.00
C286   C     0.57506   0.62338   0.67043   0.00000  Uiso   1.00
C287   C     0.55137   0.77347   0.66190   0.00000  Uiso   1.00
C288   C     0.48716   0.79234   0.65823   0.00000  Uiso   1.00
C289   C     0.38647   0.88464   0.64933   0.00000  Uiso   1.00
C290   C     0.57183   0.34299   0.68439   0.00000  Uiso   1.00
C291   C     0.60683   0.32150   0.64551   0.00000  Uiso   1.00
C292   C     0.60221   0.19288   0.61692   0.00000  Uiso   1.00
C293   C     0.63807   0.19551   0.58342   0.00000  Uiso   1.00
C294   C     0.62193   0.37076   0.72658   0.00000  Uiso   1.00
C295   C     0.63000   0.28357   0.76616   0.00000  Uiso   1.00
C296   C     0.67857   0.32768   0.80091   0.00000  Uiso   1.00
C297   C     0.53600   0.49662   0.67514   0.00000  Uiso   1.00
C298   C     0.47182   0.51526   0.67149   0.00000  Uiso   1.00
C299   C     0.44804   0.66535   0.66295   0.00000  Uiso   1.00
H300   H     0.67414   0.67505   0.67205   0.00000  Uiso   1.00
H301   H     0.71199   0.54919   0.60370   0.00000  Uiso   1.00
H302   H     0.73977   0.63988   0.75291   0.00000  Uiso   1.00
H303   H     0.58161   0.87153   0.65826   0.00000  Uiso   1.00
H304   H     0.73674   0.35373   0.53000   0.00000  Uiso   1.00
H305   H     0.79531   0.54498   0.84463   0.00000  Uiso   1.00
H306   H     0.46180   0.03348   0.64504   0.00000  Uiso   1.00
H307   H     0.54142   0.24430   0.68805   0.00000  Uiso   1.00
H308   H     0.57198   0.09480   0.62057   0.00000  Uiso   1.00
H309   H     0.59977   0.18549   0.76979   0.00000  Uiso   1.00
H310   H     0.44161   0.41714   0.67514   0.00000  Uiso   1.00
H311   H     0.62310   0.98493   0.54370   0.00000  Uiso   1.00
H312   H     0.68167   0.17619   0.85834   0.00000  Uiso   1.00
H313   H     0.34816   0.66467   0.65874   0.00000  Uiso   1.00
O314   O     0.70243   0.07873   0.49218   0.00000  Uiso   1.00
O315   O     0.77927   0.32968   0.90497   0.00000  Uiso   1.00
O316   O     0.34171   0.97056   0.64311   0.00000  Uiso   1.00
N317   N     0.70579   0.28746   0.54248   0.00000  Uiso   1.00
N318   N     0.76056   0.46626   0.83664   0.00000  Uiso   1.00
N319   N     0.44875   0.92297   0.65005   0.00000  Uiso   1.00
N320   N     0.64464   0.08901   0.54985   0.00000  Uiso   1.00
N321   N     0.69941   0.26781   0.84401   0.00000  Uiso   1.00
N322   N     0.38761   0.72452   0.65742   0.00000  Uiso   1.00
C323   C     0.14373   0.07636   0.67572   0.00000  Uiso   1.00
C324   C     0.14589   0.94826   0.64079   0.00000  Uiso   1.00
C325   C     0.18176   0.95108   0.60733   0.00000  Uiso   1.00
C326   C     0.17720   0.82249   0.57870   0.00000  Uiso   1.00
C327   C     0.18650   0.64283   0.52378   0.00000  Uiso   1.00
C328   C     0.16099   0.99751   0.72187   0.00000  Uiso   1.00
C329   C     0.20956   0.04177   0.75657   0.00000  Uiso   1.00
C330   C     0.21770   0.95466   0.79619   0.00000  Uiso   1.00
C331   C     0.25042   0.85154   0.86714   0.00000  Uiso   1.00
C332   C     0.07506   0.12338   0.67043   0.00000  Uiso   1.00
C333   C     0.05137   0.27347   0.66190   0.00000  Uiso   1.00
C334   C     0.98716   0.29234   0.65823   0.00000  Uiso   1.00
C335   C     0.88647   0.38464   0.64933   0.00000  Uiso   1.00
C336   C     0.07183   0.84299   0.68439   0.00000  Uiso   1.00
C337   C     0.10683   0.82150   0.64551   0.00000  Uiso   1.00
C338   C     0.10221   0.69288   0.61692   0.00000  Uiso   1.00
C339   C     0.13807   0.69551   0.58342   0.00000  Uiso   1.00
C340   C     0.12193   0.87076   0.72658   0.00000  Uiso   1.00
C341   C     0.13000   0.78357   0.76616   0.00000  Uiso   1.00
C342   C     0.17857   0.82768   0.80091   0.00000  Uiso   1.00
C343   C     0.03600   0.99662   0.67514   0.00000  Uiso   1.00
C344   C     0.97182   0.01526   0.67149   0.00000  Uiso   1.00
C345   C     0.94804   0.16535   0.66295   0.00000  Uiso   1.00
H346   H     0.17414   0.17505   0.67205   0.00000  Uiso   1.00
H347   H     0.21199   0.04919   0.60370   0.00000  Uiso   1.00
H348   H     0.23977   0.13988   0.75291   0.00000  Uiso   1.00
H349   H     0.08161   0.37153   0.65826   0.00000  Uiso   1.00
H350   H     0.23674   0.85373   0.53000   0.00000  Uiso   1.00
H351   H     0.29531   0.04498   0.84463   0.00000  Uiso   1.00
H352   H     0.96180   0.53348   0.64504   0.00000  Uiso   1.00
H353   H     0.04142   0.74430   0.68805   0.00000  Uiso   1.00
H354   H     0.07198   0.59480   0.62057   0.00000  Uiso   1.00
H355   H     0.09977   0.68549   0.76979   0.00000  Uiso   1.00
H356   H     0.94161   0.91714   0.67514   0.00000  Uiso   1.00
H357   H     0.12310   0.48493   0.54370   0.00000  Uiso   1.00
H358   H     0.18167   0.67619   0.85834   0.00000  Uiso   1.00
H359   H     0.84816   0.16467   0.65874   0.00000  Uiso   1.00
O360   O     0.20243   0.57873   0.49218   0.00000  Uiso   1.00
O361   O     0.27927   0.82968   0.90497   0.00000  Uiso   1.00
O362   O     0.84171   0.47056   0.64311   0.00000  Uiso   1.00
N363   N     0.20579   0.78746   0.54248   0.00000  Uiso   1.00
N364   N     0.26056   0.96626   0.83664   0.00000  Uiso   1.00
N365   N     0.94875   0.42297   0.65005   0.00000  Uiso   1.00
N366   N     0.14464   0.58901   0.54985   0.00000  Uiso   1.00
N367   N     0.19941   0.76781   0.84401   0.00000  Uiso   1.00
N368   N     0.88761   0.22452   0.65742   0.00000  Uiso   1.00
