data_job_06740
_audit_creation_date              2018-12-19
_audit_creation_method            'Materials Studio'
_symmetry_space_group_name_H-M    'P1'
_symmetry_Int_Tables_number       1
_symmetry_cell_setting            triclinic
loop_
_symmetry_equiv_pos_as_xyz
  x,y,z
_cell_length_a                    20.0978
_cell_length_b                    20.3158
_cell_length_c                    23.3587
_cell_angle_alpha                 83.3583
_cell_angle_beta                  77.8956
_cell_angle_gamma                 64.9304
loop_
_atom_site_label
_atom_site_type_symbol
_atom_site_fract_x
_atom_site_fract_y
_atom_site_fract_z
_atom_site_U_iso_or_equiv
_atom_site_adp_type
_atom_site_occupancy
C1     C     0.76647   0.80168   0.73324   0.00000  Uiso   1.00
C2     C     0.71629   0.76954   0.77282   0.00000  Uiso   1.00
C3     C     0.73034   0.73087   0.82515   0.00000  Uiso   1.00
C4     C     0.67756   0.70598   0.85490   0.00000  Uiso   1.00
C5     C     0.60948   0.65402   0.91966   0.00000  Uiso   1.00
C6     C     0.78374   0.76976   0.67317   0.00000  Uiso   1.00
C7     C     0.85450   0.73128   0.64171   0.00000  Uiso   1.00
C8     C     0.85850   0.70659   0.58756   0.00000  Uiso   1.00
C9     C     0.89513   0.65501   0.49760   0.00000  Uiso   1.00
C10    C     0.71802   0.88258   0.72616   0.00000  Uiso   1.00
C11    C     0.73354   0.93896   0.73924   0.00000  Uiso   1.00
C12    C     0.68221   0.00926   0.72969   0.00000  Uiso   1.00
C13    C     0.61680   0.13285   0.72200   0.00000  Uiso   1.00
C14    C     0.64775   0.82627   0.69301   0.00000  Uiso   1.00
C15    C     0.65181   0.78290   0.75097   0.00000  Uiso   1.00
C16    C     0.59899   0.75807   0.78064   0.00000  Uiso   1.00
C17    C     0.61296   0.71936   0.83301   0.00000  Uiso   1.00
C18    C     0.71926   0.78311   0.65132   0.00000  Uiso   1.00
C19    C     0.72315   0.75848   0.59720   0.00000  Uiso   1.00
C20    C     0.79390   0.71997   0.56567   0.00000  Uiso   1.00
C21    C     0.65353   0.89594   0.70431   0.00000  Uiso   1.00
C22    C     0.60218   0.96616   0.69473   0.00000  Uiso   1.00
C23    C     0.61761   0.02264   0.70780   0.00000  Uiso   1.00
H24    H     0.81668   0.79128   0.75025   0.00000  Uiso   1.00
H25    H     0.78026   0.72053   0.84204   0.00000  Uiso   1.00
H26    H     0.90440   0.72096   0.65863   0.00000  Uiso   1.00
H27    H     0.78344   0.92860   0.75615   0.00000  Uiso   1.00
H28    H     0.71146   0.64797   0.93417   0.00000  Uiso   1.00
H29    H     0.97321   0.64888   0.54742   0.00000  Uiso   1.00
H30    H     0.71816   0.08674   0.75305   0.00000  Uiso   1.00
H31    H     0.59754   0.83667   0.67599   0.00000  Uiso   1.00
H32    H     0.54909   0.76841   0.76372   0.00000  Uiso   1.00
H33    H     0.67324   0.76883   0.58030   0.00000  Uiso   1.00
H34    H     0.55228   0.97648   0.67782   0.00000  Uiso   1.00
H35    H     0.52384   0.68682   0.87060   0.00000  Uiso   1.00
H36    H     0.78559   0.68773   0.48385   0.00000  Uiso   1.00
H37    H     0.53054   0.12560   0.68948   0.00000  Uiso   1.00
O38    O     0.58974   0.62166   0.96142   0.00000  Uiso   1.00
O39    O     0.93315   0.62286   0.45402   0.00000  Uiso   1.00
O40    O     0.59853   0.19733   0.72381   0.00000  Uiso   1.00
N41    N     0.67394   0.66649   0.90717   0.00000  Uiso   1.00
N42    N     0.91867   0.66733   0.54559   0.00000  Uiso   1.00
N43    N     0.68022   0.07670   0.73783   0.00000  Uiso   1.00
N44    N     0.57298   0.68740   0.87297   0.00000  Uiso   1.00
N45    N     0.81771   0.68824   0.51138   0.00000  Uiso   1.00
N46    N     0.57927   0.09761   0.70362   0.00000  Uiso   1.00
C47    C     0.65853   0.41552   0.29856   0.00000  Uiso   1.00
C48    C     0.58241   0.41717   0.32741   0.00000  Uiso   1.00
C49    C     0.51993   0.44194   0.30105   0.00000  Uiso   1.00
C50    C     0.45555   0.43896   0.33483   0.00000  Uiso   1.00
C51    C     0.33760   0.44563   0.37080   0.00000  Uiso   1.00
C52    C     0.67650   0.45875   0.33760   0.00000  Uiso   1.00
C53    C     0.69314   0.51848   0.31981   0.00000  Uiso   1.00
C54    C     0.70798   0.55049   0.36217   0.00000  Uiso   1.00
C55    C     0.73616   0.62169   0.41396   0.00000  Uiso   1.00
C56    C     0.71448   0.33682   0.30390   0.00000  Uiso   1.00
C57    C     0.76307   0.29403   0.25778   0.00000  Uiso   1.00
C58    C     0.80990   0.22339   0.27176   0.00000  Uiso   1.00
C59    C     0.89705   0.10528   0.27123   0.00000  Uiso   1.00
C60    C     0.65530   0.36616   0.40541   0.00000  Uiso   1.00
C61    C     0.58065   0.39036   0.38545   0.00000  Uiso   1.00
C62    C     0.51635   0.38733   0.41927   0.00000  Uiso   1.00
C63    C     0.45379   0.41210   0.39297   0.00000  Uiso   1.00
C64    C     0.67474   0.43194   0.39564   0.00000  Uiso   1.00
C65    C     0.68956   0.46387   0.43803   0.00000  Uiso   1.00
C66    C     0.70622   0.52364   0.42031   0.00000  Uiso   1.00
C67    C     0.71272   0.31001   0.36194   0.00000  Uiso   1.00
C68    C     0.75949   0.23942   0.37600   0.00000  Uiso   1.00
C69    C     0.80814   0.19654   0.32991   0.00000  Uiso   1.00
H70    H     0.65990   0.43639   0.25338   0.00000  Uiso   1.00
H71    H     0.52131   0.46269   0.25614   0.00000  Uiso   1.00
H72    H     0.69450   0.53921   0.27489   0.00000  Uiso   1.00
H73    H     0.76442   0.31480   0.21287   0.00000  Uiso   1.00
H74    H     0.36687   0.48005   0.28480   0.00000  Uiso   1.00
H75    H     0.73208   0.64138   0.32434   0.00000  Uiso   1.00
H76    H     0.87951   0.16816   0.19356   0.00000  Uiso   1.00
H77    H     0.65393   0.34529   0.45060   0.00000  Uiso   1.00
H78    H     0.51501   0.36658   0.46418   0.00000  Uiso   1.00
H79    H     0.68820   0.44311   0.48294   0.00000  Uiso   1.00
H80    H     0.75811   0.21870   0.42092   0.00000  Uiso   1.00
H81    H     0.36175   0.40205   0.45366   0.00000  Uiso   1.00
H82    H     0.72697   0.56338   0.49320   0.00000  Uiso   1.00
H83    H     0.87439   0.09016   0.36241   0.00000  Uiso   1.00
O84    O     0.27303   0.45673   0.37461   0.00000  Uiso   1.00
O85    O     0.75218   0.66838   0.42649   0.00000  Uiso   1.00
O86    O     0.94560   0.04753   0.25490   0.00000  Uiso   1.00
N87    N     0.38474   0.45876   0.32267   0.00000  Uiso   1.00
N88    N     0.72618   0.60960   0.35964   0.00000  Uiso   1.00
N89    N     0.86402   0.16719   0.23737   0.00000  Uiso   1.00
N90    N     0.38198   0.41678   0.41353   0.00000  Uiso   1.00
N91    N     0.72342   0.56763   0.45051   0.00000  Uiso   1.00
N92    N     0.86127   0.12521   0.32823   0.00000  Uiso   1.00
C93    C     0.29954   0.24412   0.30480   0.00000  Uiso   1.00
C94    C     0.27210   0.20201   0.35539   0.00000  Uiso   1.00
C95    C     0.22554   0.23115   0.40747   0.00000  Uiso   1.00
C96    C     0.20685   0.18360   0.44828   0.00000  Uiso   1.00
C97    C     0.16017   0.12946   0.52851   0.00000  Uiso   1.00
C98    C     0.38456   0.20627   0.29433   0.00000  Uiso   1.00
C99    C     0.43255   0.23900   0.29507   0.00000  Uiso   1.00
C100   C     0.50853   0.19502   0.28447   0.00000  Uiso   1.00
C101   C     0.63645   0.14751   0.26986   0.00000  Uiso   1.00
C102   C     0.27596   0.23069   0.25087   0.00000  Uiso   1.00
C103   C     0.23267   0.28396   0.21505   0.00000  Uiso   1.00
C104   C     0.21723   0.26055   0.16785   0.00000  Uiso   1.00
C105   C     0.17654   0.25095   0.08577   0.00000  Uiso   1.00
C106   C     0.34914   0.10783   0.28465   0.00000  Uiso   1.00
C107   C     0.29904   0.12798   0.34444   0.00000  Uiso   1.00
C108   C     0.28041   0.08036   0.38518   0.00000  Uiso   1.00
C109   C     0.23383   0.10943   0.43731   0.00000  Uiso   1.00
C110   C     0.41150   0.13224   0.28339   0.00000  Uiso   1.00
C111   C     0.48742   0.08821   0.27278   0.00000  Uiso   1.00
C112   C     0.53552   0.12086   0.27350   0.00000  Uiso   1.00
C113   C     0.30290   0.15666   0.23993   0.00000  Uiso   1.00
C114   C     0.28753   0.13316   0.19277   0.00000  Uiso   1.00
C115   C     0.24422   0.18638   0.15689   0.00000  Uiso   1.00
H116   H     0.27857   0.30176   0.31331   0.00000  Uiso   1.00
H117   H     0.20471   0.28845   0.41592   0.00000  Uiso   1.00
H118   H     0.41169   0.29629   0.30353   0.00000  Uiso   1.00
H119   H     0.21183   0.34124   0.22353   0.00000  Uiso   1.00
H120   H     0.13472   0.24104   0.52487   0.00000  Uiso   1.00
H121   H     0.57115   0.25758   0.28786   0.00000  Uiso   1.00
H122   H     0.14971   0.35237   0.11917   0.00000  Uiso   1.00
H123   H     0.37011   0.05019   0.27613   0.00000  Uiso   1.00
H124   H     0.30127   0.02308   0.37670   0.00000  Uiso   1.00
H125   H     0.50825   0.03092   0.26431   0.00000  Uiso   1.00
H126   H     0.30839   0.07587   0.18431   0.00000  Uiso   1.00
H127   H     0.21309   0.02566   0.49303   0.00000  Uiso   1.00
H128   H     0.64952   0.04220   0.25603   0.00000  Uiso   1.00
H129   H     0.22808   0.13699   0.08734   0.00000  Uiso   1.00
O130   O     0.12699   0.12004   0.57579   0.00000  Uiso   1.00
O131   O     0.69956   0.14175   0.26483   0.00000  Uiso   1.00
O132   O     0.14664   0.26611   0.04352   0.00000  Uiso   1.00
N133   N     0.16260   0.19407   0.50357   0.00000  Uiso   1.00
N134   N     0.57064   0.20954   0.28199   0.00000  Uiso   1.00
N135   N     0.17664   0.29816   0.12427   0.00000  Uiso   1.00
N136   N     0.20477   0.07818   0.48644   0.00000  Uiso   1.00
N137   N     0.61281   0.09364   0.26486   0.00000  Uiso   1.00
N138   N     0.21881   0.18226   0.10714   0.00000  Uiso   1.00
C139   C     0.83785   0.25625   0.77506   0.00000  Uiso   1.00
C140   C     0.78253   0.22997   0.81435   0.00000  Uiso   1.00
C141   C     0.71839   0.23153   0.79976   0.00000  Uiso   1.00
C142   C     0.67513   0.20496   0.84176   0.00000  Uiso   1.00
C143   C     0.58617   0.16825   0.89446   0.00000  Uiso   1.00
C144   C     0.91377   0.19174   0.77011   0.00000  Uiso   1.00
C145   C     0.95999   0.16117   0.71831   0.00000  Uiso   1.00
C146   C     0.02721   0.10242   0.72307   0.00000  Uiso   1.00
C147   C     0.14204   0.00640   0.70707   0.00000  Uiso   1.00
C148   C     0.84276   0.31280   0.80962   0.00000  Uiso   1.00
C149   C     0.82929   0.38400   0.79105   0.00000  Uiso   1.00
C150   C     0.83674   0.42717   0.82907   0.00000  Uiso   1.00
C151   C     0.84130   0.51909   0.87442   0.00000  Uiso   1.00
C152   C     0.87506   0.20631   0.87561   0.00000  Uiso   1.00
C153   C     0.80274   0.20284   0.86897   0.00000  Uiso   1.00
C154   C     0.75956   0.17627   0.91101   0.00000  Uiso   1.00
C155   C     0.69537   0.17779   0.89648   0.00000  Uiso   1.00
C156   C     0.93398   0.16462   0.82472   0.00000  Uiso   1.00
C157   C     0.00116   0.10591   0.82956   0.00000  Uiso   1.00
C158   C     0.04746   0.07525   0.77778   0.00000  Uiso   1.00
C159   C     0.86297   0.28567   0.86424   0.00000  Uiso   1.00
C160   C     0.87045   0.32874   0.90230   0.00000  Uiso   1.00
C161   C     0.85699   0.39999   0.88379   0.00000  Uiso   1.00
H162   H     0.82212   0.27737   0.73254   0.00000  Uiso   1.00
H163   H     0.70278   0.25252   0.75749   0.00000  Uiso   1.00
H164   H     0.94434   0.18218   0.67605   0.00000  Uiso   1.00
H165   H     0.81365   0.40497   0.74878   0.00000  Uiso   1.00
H166   H     0.57939   0.21298   0.80923   0.00000  Uiso   1.00
H167   H     0.08875   0.06468   0.63751   0.00000  Uiso   1.00
H168   H     0.81316   0.53448   0.79087   0.00000  Uiso   1.00
H169   H     0.89080   0.18518   0.91813   0.00000  Uiso   1.00
H170   H     0.77521   0.15528   0.95327   0.00000  Uiso   1.00
H171   H     0.01678   0.08494   0.87183   0.00000  Uiso   1.00
H172   H     0.88609   0.30773   0.94456   0.00000  Uiso   1.00
H173   H     0.63818   0.13406   0.96813   0.00000  Uiso   1.00
H174   H     0.14754   0.98575   0.79641   0.00000  Uiso   1.00
H175   H     0.87196   0.45555   0.94977   0.00000  Uiso   1.00
O176   O     0.53152   0.15549   0.90843   0.00000  Uiso   1.00
O177   O     0.19979   0.96093   0.68315   0.00000  Uiso   1.00
O178   O     0.83823   0.57730   0.88436   0.00000  Uiso   1.00
N179   N     0.60908   0.19852   0.84181   0.00000  Uiso   1.00
N180   N     0.08529   0.05986   0.68126   0.00000  Uiso   1.00
N181   N     0.82767   0.49908   0.82464   0.00000  Uiso   1.00
N182   N     0.64071   0.15606   0.92731   0.00000  Uiso   1.00
N183   N     0.11693   0.01739   0.76677   0.00000  Uiso   1.00
N184   N     0.85930   0.45661   0.91014   0.00000  Uiso   1.00
C185   C     0.25310   0.37239   0.78460   0.00000  Uiso   1.00
C186   C     0.19229   0.40550   0.83730   0.00000  Uiso   1.00
C187   C     0.18284   0.37034   0.89097   0.00000  Uiso   1.00
C188   C     0.12384   0.41003   0.93358   0.00000  Uiso   1.00
C189   C     0.03671   0.45047   0.01705   0.00000  Uiso   1.00
C190   C     0.29402   0.42216   0.76896   0.00000  Uiso   1.00
C191   C     0.37011   0.40099   0.76517   0.00000  Uiso   1.00
C192   C     0.39675   0.45471   0.75025   0.00000  Uiso   1.00
C193   C     0.46756   0.52100   0.72759   0.00000  Uiso   1.00
C194   C     0.21270   0.38066   0.73400   0.00000  Uiso   1.00
C195   C     0.22044   0.32461   0.70080   0.00000  Uiso   1.00
C196   C     0.17862   0.34340   0.65644   0.00000  Uiso   1.00
C197   C     0.12317   0.34525   0.57949   0.00000  Uiso   1.00
C198   C     0.16511   0.50541   0.76484   0.00000  Uiso   1.00
C199   C     0.14450   0.47775   0.82657   0.00000  Uiso   1.00
C200   C     0.08549   0.51751   0.86911   0.00000  Uiso   1.00
C201   C     0.07596   0.48241   0.92283   0.00000  Uiso   1.00
C202   C     0.24623   0.49441   0.75823   0.00000  Uiso   1.00
C203   C     0.27276   0.54817   0.74331   0.00000  Uiso   1.00
C204   C     0.34887   0.52710   0.73950   0.00000  Uiso   1.00
C205   C     0.16491   0.45291   0.72327   0.00000  Uiso   1.00
C206   C     0.12308   0.47179   0.67895   0.00000  Uiso   1.00
C207   C     0.13074   0.41578   0.64569   0.00000  Uiso   1.00
H208   H     0.29032   0.31614   0.79295   0.00000  Uiso   1.00
H209   H     0.21985   0.31442   0.89926   0.00000  Uiso   1.00
H210   H     0.40709   0.34508   0.77347   0.00000  Uiso   1.00
H211   H     0.25743   0.26871   0.70912   0.00000  Uiso   1.00
H212   H     0.12066   0.34439   0.01239   0.00000  Uiso   1.00
H213   H     0.51546   0.40902   0.74715   0.00000  Uiso   1.00
H214   H     0.19988   0.24798   0.61144   0.00000  Uiso   1.00
H215   H     0.12790   0.56166   0.75649   0.00000  Uiso   1.00
H216   H     0.04851   0.57343   0.86079   0.00000  Uiso   1.00
H217   H     0.23576   0.60408   0.73501   0.00000  Uiso   1.00
H218   H     0.08610   0.52771   0.67065   0.00000  Uiso   1.00
H219   H     0.98160   0.55461   0.98117   0.00000  Uiso   1.00
H220   H     0.37641   0.61924   0.71592   0.00000  Uiso   1.00
H221   H     0.06082   0.45820   0.58022   0.00000  Uiso   1.00
O222   O     0.00185   0.45282   0.06605   0.00000  Uiso   1.00
O223   O     0.51982   0.53760   0.71806   0.00000  Uiso   1.00
O224   O     0.10579   0.32632   0.54002   0.00000  Uiso   1.00
N225   N     0.09882   0.39225   0.99072   0.00000  Uiso   1.00
N226   N     0.46794   0.45268   0.74275   0.00000  Uiso   1.00
N227   N     0.17291   0.30212   0.61586   0.00000  Uiso   1.00
N228   N     0.02399   0.50537   0.97392   0.00000  Uiso   1.00
N229   N     0.39311   0.56579   0.72595   0.00000  Uiso   1.00
N230   N     0.09808   0.41523   0.59906   0.00000  Uiso   1.00
C231   C     0.18944   0.88279   0.11883   0.00000  Uiso   1.00
C232   C     0.11102   0.89126   0.11623   0.00000  Uiso   1.00
C233   C     0.04660   0.92921   0.15533   0.00000  Uiso   1.00
C234   C     0.98029   0.93058   0.14540   0.00000  Uiso   1.00
C235   C     0.85877   0.94914   0.14854   0.00000  Uiso   1.00
C236   C     0.21775   0.91134   0.05983   0.00000  Uiso   1.00
C237   C     0.24308   0.96616   0.05152   0.00000  Uiso   1.00
C238   C     0.26663   0.98442   0.99410   0.00000  Uiso   1.00
C239   C     0.31087   0.03411   0.90969   0.00000  Uiso   1.00
C240   C     0.23736   0.80119   0.12069   0.00000  Uiso   1.00
C241   C     0.27919   0.76340   0.16353   0.00000  Uiso   1.00
C242   C     0.31926   0.68892   0.15734   0.00000  Uiso   1.00
C243   C     0.39394   0.56760   0.16742   0.00000  Uiso   1.00
C244   C     0.18623   0.81774   0.03165   0.00000  Uiso   1.00
C245   C     0.10928   0.85593   0.06888   0.00000  Uiso   1.00
C246   C     0.04305   0.85724   0.05888   0.00000  Uiso   1.00
C247   C     0.97854   0.89518   0.09796   0.00000  Uiso   1.00
C248   C     0.21601   0.87601   0.01248   0.00000  Uiso   1.00
C249   C     0.23953   0.89419   0.95506   0.00000  Uiso   1.00
C250   C     0.26488   0.94902   0.94666   0.00000  Uiso   1.00
C251   C     0.23561   0.76586   0.07333   0.00000  Uiso   1.00
C252   C     0.27563   0.69143   0.06708   0.00000  Uiso   1.00
C253   C     0.31752   0.65353   0.10990   0.00000  Uiso   1.00
H254   H     0.19080   0.91030   0.15570   0.00000  Uiso   1.00
H255   H     0.04797   0.95655   0.19197   0.00000  Uiso   1.00
H256   H     0.24443   0.99349   0.08817   0.00000  Uiso   1.00
H257   H     0.28053   0.79076   0.20017   0.00000  Uiso   1.00
H258   H     0.88884   0.99227   0.21129   0.00000  Uiso   1.00
H259   H     0.30311   0.07013   0.99243   0.00000  Uiso   1.00
H260   H     0.37923   0.64265   0.22860   0.00000  Uiso   1.00
H261   H     0.18488   0.79023   0.99478   0.00000  Uiso   1.00
H262   H     0.04172   0.82989   0.02223   0.00000  Uiso   1.00
H263   H     0.23818   0.86683   0.91843   0.00000  Uiso   1.00
H264   H     0.27427   0.66410   0.03043   0.00000  Uiso   1.00
H265   H     0.88376   0.88947   0.07352   0.00000  Uiso   1.00
H266   H     0.29804   0.96734   0.85466   0.00000  Uiso   1.00
H267   H     0.37415   0.53985   0.09082   0.00000  Uiso   1.00
O268   O     0.79223   0.96915   0.16336   0.00000  Uiso   1.00
O269   O     0.33575   0.07129   0.87621   0.00000  Uiso   1.00
O270   O     0.43561   0.51044   0.18606   0.00000  Uiso   1.00
N271   N     0.90730   0.96262   0.17511   0.00000  Uiso   1.00
N272   N     0.29460   0.03543   0.97048   0.00000  Uiso   1.00
N273   N     0.36578   0.63577   0.19127   0.00000  Uiso   1.00
N274   N     0.90456   0.90730   0.10098   0.00000  Uiso   1.00
N275   N     0.29187   0.98011   0.89635   0.00000  Uiso   1.00
N276   N     0.36305   0.58045   0.11714   0.00000  Uiso   1.00
C277   C     0.51996   0.82541   0.17844   0.00000  Uiso   1.00
C278   C     0.57434   0.82598   0.21495   0.00000  Uiso   1.00
C279   C     0.62238   0.86053   0.19918   0.00000  Uiso   1.00
C280   C     0.66771   0.85463   0.23863   0.00000  Uiso   1.00
C281   C     0.75253   0.86148   0.28722   0.00000  Uiso   1.00
C282   C     0.44303   0.85541   0.21725   0.00000  Uiso   1.00
C283   C     0.38067   0.91469   0.20342   0.00000  Uiso   1.00
C284   C     0.31547   0.93355   0.24481   0.00000  Uiso   1.00
C285   C     0.19641   0.98606   0.29697   0.00000  Uiso   1.00
C286   C     0.53913   0.74559   0.17035   0.00000  Uiso   1.00
C287   C     0.55756   0.71252   0.11707   0.00000  Uiso   1.00
C288   C     0.57325   0.63893   0.11897   0.00000  Uiso   1.00
C289   C     0.60341   0.52092   0.09830   0.00000  Uiso   1.00
C290   C     0.51503   0.75351   0.27654   0.00000  Uiso   1.00
C291   C     0.57166   0.78693   0.26823   0.00000  Uiso   1.00
C292   C     0.61693   0.78098   0.30772   0.00000  Uiso   1.00
C293   C     0.66504   0.81550   0.29201   0.00000  Uiso   1.00
C294   C     0.44035   0.81636   0.27054   0.00000  Uiso   1.00
C295   C     0.37522   0.83514   0.31196   0.00000  Uiso   1.00
C296   C     0.31278   0.89443   0.29819   0.00000  Uiso   1.00
C297   C     0.53646   0.70653   0.22363   0.00000  Uiso   1.00
C298   C     0.55211   0.63297   0.22561   0.00000  Uiso   1.00
C299   C     0.57057   0.59981   0.17235   0.00000  Uiso   1.00
H300   H     0.52204   0.85582   0.13696   0.00000  Uiso   1.00
H301   H     0.62443   0.89075   0.15794   0.00000  Uiso   1.00
H302   H     0.38276   0.94489   0.16218   0.00000  Uiso   1.00
H303   H     0.55963   0.74276   0.07585   0.00000  Uiso   1.00
H304   H     0.73676   0.91227   0.20471   0.00000  Uiso   1.00
H305   H     0.22717   0.02643   0.21364   0.00000  Uiso   1.00
H306   H     0.60012   0.60019   0.03160   0.00000  Uiso   1.00
H307   H     0.51294   0.72311   0.31803   0.00000  Uiso   1.00
H308   H     0.61484   0.75075   0.34895   0.00000  Uiso   1.00
H309   H     0.37317   0.80490   0.35318   0.00000  Uiso   1.00
H310   H     0.55003   0.60277   0.26685   0.00000  Uiso   1.00
H311   H     0.72897   0.79865   0.35974   0.00000  Uiso   1.00
H312   H     0.21938   0.91280   0.36867   0.00000  Uiso   1.00
H313   H     0.59233   0.48657   0.18663   0.00000  Uiso   1.00
O314   O     0.80004   0.87606   0.29931   0.00000  Uiso   1.00
O315   O     0.13148   0.02582   0.31102   0.00000  Uiso   1.00
O316   O     0.62079   0.46661   0.07218   0.00000  Uiso   1.00
N317   N     0.72095   0.88173   0.23695   0.00000  Uiso   1.00
N318   N     0.24452   0.98846   0.24530   0.00000  Uiso   1.00
N319   N     0.59318   0.58997   0.07511   0.00000  Uiso   1.00
N320   N     0.71676   0.82058   0.32037   0.00000  Uiso   1.00
N321   N     0.24033   0.92732   0.32872   0.00000  Uiso   1.00
N322   N     0.58899   0.52883   0.15852   0.00000  Uiso   1.00
C323   C     0.43837   0.23083   0.62482   0.00000  Uiso   1.00
C324   C     0.50369   0.19429   0.57581   0.00000  Uiso   1.00
C325   C     0.57754   0.18130   0.57461   0.00000  Uiso   1.00
C326   C     0.62898   0.14720   0.52585   0.00000  Uiso   1.00
C327   C     0.73371   0.09351   0.45675   0.00000  Uiso   1.00
C328   C     0.40260   0.17723   0.64473   0.00000  Uiso   1.00
C329   C     0.39145   0.14991   0.70148   0.00000  Uiso   1.00
C330   C     0.35779   0.10145   0.71075   0.00000  Uiso   1.00
C331   C     0.30553   0.02132   0.74865   0.00000  Uiso   1.00
C332   C     0.38144   0.29529   0.59604   0.00000  Uiso   1.00
C333   C     0.35247   0.36725   0.61186   0.00000  Uiso   1.00
C334   C     0.30097   0.41819   0.58014   0.00000  Uiso   1.00
C335   C     0.21585   0.52138   0.54245   0.00000  Uiso   1.00
C336   C     0.39840   0.19335   0.54037   0.00000  Uiso   1.00
C337   C     0.48197   0.17392   0.52994   0.00000  Uiso   1.00
C338   C     0.53331   0.13983   0.48117   0.00000  Uiso   1.00
C339   C     0.60723   0.12680   0.47990   0.00000  Uiso   1.00
C340   C     0.38089   0.15686   0.59886   0.00000  Uiso   1.00
C341   C     0.34723   0.10844   0.60805   0.00000  Uiso   1.00
C342   C     0.33604   0.08105   0.66480   0.00000  Uiso   1.00
C343   C     0.35972   0.27493   0.55017   0.00000  Uiso   1.00
C344   C     0.30825   0.32577   0.51842   0.00000  Uiso   1.00
C345   C     0.27922   0.39779   0.53419   0.00000  Uiso   1.00
H346   H     0.45528   0.24668   0.66053   0.00000  Uiso   1.00
H347   H     0.59432   0.19706   0.61012   0.00000  Uiso   1.00
H348   H     0.40826   0.16568   0.73697   0.00000  Uiso   1.00
H349   H     0.36929   0.38298   0.64736   0.00000  Uiso   1.00
H350   H     0.73891   0.13305   0.53401   0.00000  Uiso   1.00
H351   H     0.34656   0.06689   0.80149   0.00000  Uiso   1.00
H352   H     0.26438   0.52512   0.61253   0.00000  Uiso   1.00
H353   H     0.38149   0.17750   0.50465   0.00000  Uiso   1.00
H354   H     0.51650   0.12408   0.44568   0.00000  Uiso   1.00
H355   H     0.33043   0.09270   0.57254   0.00000  Uiso   1.00
H356   H     0.29146   0.31000   0.48293   0.00000  Uiso   1.00
H357   H     0.67575   0.07381   0.40054   0.00000  Uiso   1.00
H358   H     0.28339   0.00766   0.66803   0.00000  Uiso   1.00
H359   H     0.20122   0.46588   0.47907   0.00000  Uiso   1.00
O360   O     0.79747   0.06951   0.43130   0.00000  Uiso   1.00
O361   O     0.28271   0.98274   0.78223   0.00000  Uiso   1.00
O362   O     0.17490   0.58392   0.53433   0.00000  Uiso   1.00
N363   N     0.70552   0.12645   0.51068   0.00000  Uiso   1.00
N364   N     0.33870   0.06459   0.76076   0.00000  Uiso   1.00
N365   N     0.26186   0.49300   0.58411   0.00000  Uiso   1.00
N366   N     0.67153   0.09457   0.43887   0.00000  Uiso   1.00
N367   N     0.30471   0.03272   0.68895   0.00000  Uiso   1.00
N368   N     0.22787   0.46112   0.51230   0.00000  Uiso   1.00
C369   C     0.92538   0.31106   0.57761   0.00000  Uiso   1.00
C370   C     0.94325   0.35069   0.52100   0.00000  Uiso   1.00
C371   C     0.99176   0.31802   0.47064   0.00000  Uiso   1.00
C372   C     0.00052   0.36375   0.42350   0.00000  Uiso   1.00
C373   C     0.03408   0.41377   0.33510   0.00000  Uiso   1.00
C374   C     0.84083   0.33612   0.58996   0.00000  Uiso   1.00
C375   C     0.80322   0.29120   0.59760   0.00000  Uiso   1.00
C376   C     0.72575   0.32467   0.60851   0.00000  Uiso   1.00
C377   C     0.60030   0.35207   0.62723   0.00000  Uiso   1.00
C378   C     0.94360   0.34184   0.62586   0.00000  Uiso   1.00
C379   C     0.99240   0.30172   0.66368   0.00000  Uiso   1.00
C380   C     0.00145   0.34001   0.70483   0.00000  Uiso   1.00
C381   C     0.03557   0.37628   0.77927   0.00000  Uiso   1.00
C382   C     0.85467   0.45037   0.58343   0.00000  Uiso   1.00
C383   C     0.90484   0.42635   0.52416   0.00000  Uiso   1.00
C384   C     0.91353   0.47215   0.47708   0.00000  Uiso   1.00
C385   C     0.96205   0.43955   0.42666   0.00000  Uiso   1.00
C386   C     0.80242   0.41178   0.59312   0.00000  Uiso   1.00
C387   C     0.72499   0.44533   0.60404   0.00000  Uiso   1.00
C388   C     0.68728   0.40048   0.61168   0.00000  Uiso   1.00
C389   C     0.90520   0.41750   0.62902   0.00000  Uiso   1.00
C390   C     0.91417   0.45586   0.67012   0.00000  Uiso   1.00
C391   C     0.96297   0.41581   0.70800   0.00000  Uiso   1.00
H392   H     0.95527   0.25215   0.57515   0.00000  Uiso   1.00
H393   H     0.02147   0.25946   0.46821   0.00000  Uiso   1.00
H394   H     0.83295   0.23265   0.59516   0.00000  Uiso   1.00
H395   H     0.02210   0.24317   0.66122   0.00000  Uiso   1.00
H396   H     0.07789   0.30093   0.35104   0.00000  Uiso   1.00
H397   H     0.68041   0.24439   0.61872   0.00000  Uiso   1.00
H398   H     0.07927   0.26658   0.75804   0.00000  Uiso   1.00
H399   H     0.82477   0.50928   0.58589   0.00000  Uiso   1.00
H400   H     0.88381   0.53070   0.47954   0.00000  Uiso   1.00
H401   H     0.69529   0.50389   0.60648   0.00000  Uiso   1.00
H402   H     0.88444   0.51441   0.67255   0.00000  Uiso   1.00
H403   H     0.96616   0.52108   0.36023   0.00000  Uiso   1.00
H404   H     0.56867   0.46454   0.62792   0.00000  Uiso   1.00
H405   H     0.96753   0.48673   0.76724   0.00000  Uiso   1.00
O406   O     0.06320   0.42046   0.28547   0.00000  Uiso   1.00
O407   O     0.54171   0.34628   0.63667   0.00000  Uiso   1.00
O408   O     0.06501   0.37539   0.81946   0.00000  Uiso   1.00
N409   N     0.04351   0.34980   0.36780   0.00000  Uiso   1.00
N410   N     0.67188   0.29695   0.61806   0.00000  Uiso   1.00
N411   N     0.04477   0.31769   0.74832   0.00000  Uiso   1.00
N412   N     0.98339   0.46827   0.37275   0.00000  Uiso   1.00
N413   N     0.61176   0.41541   0.62301   0.00000  Uiso   1.00
N414   N     0.98464   0.43615   0.75327   0.00000  Uiso   1.00
C415   C     0.36329   0.42542   0.04012   0.00000  Uiso   1.00
C416   C     0.42543   0.43760   0.99661   0.00000  Uiso   1.00
C417   C     0.48319   0.44913   0.01093   0.00000  Uiso   1.00
C418   C     0.53447   0.45916   0.96476   0.00000  Uiso   1.00
C419   C     0.63190   0.47834   0.90608   0.00000  Uiso   1.00
C420   C     0.29021   0.48368   0.02521   0.00000  Uiso   1.00
C421   C     0.23428   0.53395   0.06358   0.00000  Uiso   1.00
C422   C     0.17172   0.58276   0.04148   0.00000  Uiso   1.00
C423   C     0.05920   0.67345   0.02721   0.00000  Uiso   1.00
C424   C     0.36623   0.35312   0.02491   0.00000  Uiso   1.00
C425   C     0.37420   0.29362   0.06302   0.00000  Uiso   1.00
C426   C     0.37563   0.23252   0.04067   0.00000  Uiso   1.00
C427   C     0.38114   0.12049   0.02593   0.00000  Uiso   1.00
C428   C     0.35164   0.42270   0.93267   0.00000  Uiso   1.00
C429   C     0.41910   0.43613   0.93825   0.00000  Uiso   1.00
C430   C     0.47030   0.44613   0.89204   0.00000  Uiso   1.00
C431   C     0.52813   0.45768   0.90629   0.00000  Uiso   1.00
C432   C     0.28388   0.48221   0.96685   0.00000  Uiso   1.00
C433   C     0.22139   0.53095   0.94469   0.00000  Uiso   1.00
C434   C     0.16538   0.58129   0.98301   0.00000  Uiso   1.00
C435   C     0.35991   0.35165   0.96654   0.00000  Uiso   1.00
C436   C     0.36131   0.29063   0.94413   0.00000  Uiso   1.00
C437   C     0.36929   0.23105   0.98220   0.00000  Uiso   1.00
H438   H     0.36821   0.42657   0.08557   0.00000  Uiso   1.00
H439   H     0.48807   0.45028   0.05610   0.00000  Uiso   1.00
H440   H     0.23919   0.53507   0.10874   0.00000  Uiso   1.00
H441   H     0.37910   0.29478   0.10818   0.00000  Uiso   1.00
H442   H     0.61814   0.47594   0.99770   0.00000  Uiso   1.00
H443   H     0.09336   0.65473   0.10870   0.00000  Uiso   1.00
H444   H     0.38838   0.14803   0.10752   0.00000  Uiso   1.00
H445   H     0.34671   0.42156   0.88723   0.00000  Uiso   1.00
H446   H     0.46539   0.44499   0.84688   0.00000  Uiso   1.00
H447   H     0.21651   0.52979   0.89952   0.00000  Uiso   1.00
H448   H     0.35641   0.28951   0.89896   0.00000  Uiso   1.00
H449   H     0.59973   0.47166   0.82789   0.00000  Uiso   1.00
H450   H     0.07495   0.65044   0.93889   0.00000  Uiso   1.00
H451   H     0.36997   0.14375   0.93771   0.00000  Uiso   1.00
O452   O     0.68738   0.48933   0.88983   0.00000  Uiso   1.00
O453   O     0.99889   0.72388   0.03546   0.00000  Uiso   1.00
O454   O     0.38594   0.05911   0.03392   0.00000  Uiso   1.00
N455   N     0.59753   0.47170   0.96327   0.00000  Uiso   1.00
N456   N     0.10690   0.63886   0.06705   0.00000  Uiso   1.00
N457   N     0.38269   0.16515   0.06595   0.00000  Uiso   1.00
N458   N     0.58763   0.46940   0.87190   0.00000  Uiso   1.00
N459   N     0.09699   0.63656   0.97567   0.00000  Uiso   1.00
N460   N     0.37279   0.16284   0.97458   0.00000  Uiso   1.00
C461   C     0.93978   0.28967   0.06904   0.00000  Uiso   1.00
C462   C     0.99410   0.24840   0.01603   0.00000  Uiso   1.00
C463   C     0.02075   0.27935   0.96546   0.00000  Uiso   1.00
C464   C     0.07003   0.23230   0.92195   0.00000  Uiso   1.00
C465   C     0.15102   0.17968   0.83858   0.00000  Uiso   1.00
C466   C     0.87406   0.26828   0.07826   0.00000  Uiso   1.00
C467   C     0.79978   0.31594   0.08001   0.00000  Uiso   1.00
C468   C     0.74802   0.28563   0.08889   0.00000  Uiso   1.00
C469   C     0.64264   0.26387   0.10217   0.00000  Uiso   1.00
C470   C     0.97868   0.25735   0.12151   0.00000  Uiso   1.00
C471   C     0.99236   0.29583   0.15965   0.00000  Uiso   1.00
C472   C     0.02866   0.25632   0.20496   0.00000  Uiso   1.00
C473   C     0.08573   0.21759   0.28540   0.00000  Uiso   1.00
C474   C     0.97990   0.15109   0.08171   0.00000  Uiso   1.00
C475   C     0.01588   0.17313   0.02291   0.00000  Uiso   1.00
C476   C     0.06514   0.12602   0.97947   0.00000  Uiso   1.00
C477   C     0.09186   0.15689   0.92884   0.00000  Uiso   1.00
C478   C     0.89585   0.19301   0.08513   0.00000  Uiso   1.00
C479   C     0.84417   0.16262   0.09402   0.00000  Uiso   1.00
C480   C     0.76984   0.21022   0.09578   0.00000  Uiso   1.00
C481   C     0.00047   0.18208   0.12839   0.00000  Uiso   1.00
C482   C     0.03675   0.14250   0.17366   0.00000  Uiso   1.00
C483   C     0.05049   0.18091   0.21185   0.00000  Uiso   1.00
H484   H     0.92281   0.34827   0.06369   0.00000  Uiso   1.00
H485   H     0.00387   0.33760   0.96015   0.00000  Uiso   1.00
H486   H     0.78294   0.37419   0.07469   0.00000  Uiso   1.00
H487   H     0.97549   0.35408   0.15431   0.00000  Uiso   1.00
H488   H     0.10332   0.29258   0.84838   0.00000  Uiso   1.00
H489   H     0.63748   0.36973   0.08992   0.00000  Uiso   1.00
H490   H     0.04350   0.32732   0.25782   0.00000  Uiso   1.00
H491   H     0.99687   0.09248   0.08706   0.00000  Uiso   1.00
H492   H     0.08199   0.06778   0.98480   0.00000  Uiso   1.00
H493   H     0.86106   0.10437   0.09934   0.00000  Uiso   1.00
H494   H     0.05361   0.08425   0.17897   0.00000  Uiso   1.00
H495   H     0.16673   0.07358   0.86839   0.00000  Uiso   1.00
H496   H     0.70088   0.15074   0.10993   0.00000  Uiso   1.00
H497   H     0.10691   0.10832   0.27783   0.00000  Uiso   1.00
O498   O     0.18966   0.17145   0.79069   0.00000  Uiso   1.00
O499   O     0.57849   0.27267   0.10759   0.00000  Uiso   1.00
O500   O     0.11119   0.21703   0.32787   0.00000  Uiso   1.00
N501   N     0.10657   0.24443   0.86713   0.00000  Uiso   1.00
N502   N     0.67104   0.31656   0.09294   0.00000  Uiso   1.00
N503   N     0.05062   0.27691   0.24993   0.00000  Uiso   1.00
N504   N     0.14069   0.12659   0.87790   0.00000  Uiso   1.00
N505   N     0.70516   0.19872   0.10371   0.00000  Uiso   1.00
N506   N     0.08474   0.15907   0.26070   0.00000  Uiso   1.00
C507   C     0.00112   0.78007   0.69231   0.00000  Uiso   1.00
C508   C     0.08340   0.76653   0.67907   0.00000  Uiso   1.00
C509   C     0.13808   0.71898   0.63820   0.00000  Uiso   1.00
C510   C     0.21007   0.71435   0.63263   0.00000  Uiso   1.00
C511   C     0.33530   0.68699   0.60690   0.00000  Uiso   1.00
C512   C     0.98333   0.76436   0.75782   0.00000  Uiso   1.00
C513   C     0.95386   0.71499   0.78316   0.00000  Uiso   1.00
C514   C     0.94160   0.70855   0.84389   0.00000  Uiso   1.00
C515   C     0.91142   0.67786   0.94042   0.00000  Uiso   1.00
C516   C     0.95762   0.86163   0.68307   0.00000  Uiso   1.00
C517   C     0.90651   0.89405   0.64558   0.00000  Uiso   1.00
C518   C     0.87259   0.96950   0.64339   0.00000  Uiso   1.00
C519   C     0.80249   0.08984   0.62388   0.00000  Uiso   1.00
C520   C     0.03174   0.85641   0.75509   0.00000  Uiso   1.00
C521   C     0.10003   0.80800   0.71317   0.00000  Uiso   1.00
C522   C     0.17195   0.80344   0.70766   0.00000  Uiso   1.00
C523   C     0.22673   0.75589   0.66679   0.00000  Uiso   1.00
C524   C     0.99996   0.80583   0.79192   0.00000  Uiso   1.00
C525   C     0.98773   0.79946   0.85262   0.00000  Uiso   1.00
C526   C     0.95826   0.75009   0.87805   0.00000  Uiso   1.00
C527   C     0.97425   0.90310   0.71717   0.00000  Uiso   1.00
C528   C     0.94039   0.97851   0.71504   0.00000  Uiso   1.00
C529   C     0.88925   0.01104   0.67756   0.00000  Uiso   1.00
H530   H     0.98818   0.74779   0.66576   0.00000  Uiso   1.00
H531   H     0.12519   0.68689   0.61182   0.00000  Uiso   1.00
H532   H     0.94099   0.68292   0.75676   0.00000  Uiso   1.00
H533   H     0.89366   0.86195   0.61920   0.00000  Uiso   1.00
H534   H     0.28444   0.63765   0.56707   0.00000  Uiso   1.00
H535   H     0.89602   0.62928   0.87268   0.00000  Uiso   1.00
H536   H     0.79621   0.00680   0.58262   0.00000  Uiso   1.00
H537   H     0.04468   0.88870   0.78164   0.00000  Uiso   1.00
H538   H     0.18480   0.83553   0.73406   0.00000  Uiso   1.00
H539   H     0.00060   0.83156   0.87899   0.00000  Uiso   1.00
H540   H     0.95327   0.01058   0.74144   0.00000  Uiso   1.00
H541   H     0.33282   0.75828   0.66628   0.00000  Uiso   1.00
H542   H     0.94440   0.74992   0.97189   0.00000  Uiso   1.00
H543   H     0.84459   0.12744   0.68183   0.00000  Uiso   1.00
O544   O     0.39979   0.66043   0.58330   0.00000  Uiso   1.00
O545   O     0.89019   0.64947   0.98424   0.00000  Uiso   1.00
O546   O     0.75924   0.14476   0.60368   0.00000  Uiso   1.00
N547   N     0.27659   0.67334   0.59694   0.00000  Uiso   1.00
N548   N     0.91346   0.66552   0.88267   0.00000  Uiso   1.00
N549   N     0.82012   0.01846   0.61149   0.00000  Uiso   1.00
N550   N     0.30263   0.73826   0.65033   0.00000  Uiso   1.00
N551   N     0.93949   0.73043   0.93605   0.00000  Uiso   1.00
N552   N     0.84616   0.08338   0.66488   0.00000  Uiso   1.00
