data_job_02328
_audit_creation_date              2018-12-19
_audit_creation_method            'Materials Studio'
_symmetry_space_group_name_H-M    'P1'
_symmetry_Int_Tables_number       1
_symmetry_cell_setting            triclinic
loop_
_symmetry_equiv_pos_as_xyz
  x,y,z
_cell_length_a                    22.2608
_cell_length_b                    10.0664
_cell_length_c                    24.1789
_cell_angle_alpha                 90.0000
_cell_angle_beta                  104.5650
_cell_angle_gamma                 90.0000
loop_
_atom_site_label
_atom_site_type_symbol
_atom_site_fract_x
_atom_site_fract_y
_atom_site_fract_z
_atom_site_U_iso_or_equiv
_atom_site_adp_type
_atom_site_occupancy
C1     C     0.57867   0.83031   0.19238   0.00000  Uiso   1.00
C2     C     0.62793   0.87466   0.16243   0.00000  Uiso   1.00
C3     C     0.67452   0.96672   0.18327   0.00000  Uiso   1.00
C4     C     0.71503   0.99378   0.14943   0.00000  Uiso   1.00
C5     C     0.79243   0.07215   0.11097   0.00000  Uiso   1.00
C6     C     0.58438   0.67961   0.19765   0.00000  Uiso   1.00
C7     C     0.59435   0.60768   0.24812   0.00000  Uiso   1.00
C8     C     0.59819   0.47054   0.24392   0.00000  Uiso   1.00
C9     C     0.60794   0.24610   0.26014   0.00000  Uiso   1.00
C10    C     0.51622   0.85738   0.15047   0.00000  Uiso   1.00
C11    C     0.46888   0.93489   0.16127   0.00000  Uiso   1.00
C12    C     0.41532   0.94738   0.11735   0.00000  Uiso   1.00
C13    C     0.31924   0.99895   0.06031   0.00000  Uiso   1.00
C14    C     0.56774   0.71465   0.09520   0.00000  Uiso   1.00
C15    C     0.62199   0.81183   0.10965   0.00000  Uiso   1.00
C16    C     0.66243   0.83876   0.07576   0.00000  Uiso   1.00
C17    C     0.70908   0.93085   0.09656   0.00000  Uiso   1.00
C18    C     0.57844   0.61679   0.14487   0.00000  Uiso   1.00
C19    C     0.58226   0.47972   0.14060   0.00000  Uiso   1.00
C20    C     0.59224   0.40760   0.19105   0.00000  Uiso   1.00
C21    C     0.51028   0.79456   0.09769   0.00000  Uiso   1.00
C22    C     0.45678   0.80693   0.05375   0.00000  Uiso   1.00
C23    C     0.40937   0.88445   0.06448   0.00000  Uiso   1.00
H24    H     0.58329   0.87921   0.23347   0.00000  Uiso   1.00
H25    H     0.67911   0.01531   0.22413   0.00000  Uiso   1.00
H26    H     0.59894   0.65633   0.28895   0.00000  Uiso   1.00
H27    H     0.47349   0.98348   0.20212   0.00000  Uiso   1.00
H28    H     0.78273   0.13846   0.19050   0.00000  Uiso   1.00
H29    H     0.61368   0.38152   0.32719   0.00000  Uiso   1.00
H30    H     0.34913   0.07140   0.14408   0.00000  Uiso   1.00
H31    H     0.56311   0.66573   0.05411   0.00000  Uiso   1.00
H32    H     0.65782   0.79013   0.03492   0.00000  Uiso   1.00
H33    H     0.57766   0.43114   0.09975   0.00000  Uiso   1.00
H34    H     0.45220   0.75830   0.01291   0.00000  Uiso   1.00
H35    H     0.76545   0.95569   0.03693   0.00000  Uiso   1.00
H36    H     0.59640   0.19875   0.17362   0.00000  Uiso   1.00
H37    H     0.33185   0.88863   0.99051   0.00000  Uiso   1.00
O38    O     0.83677   0.13273   0.10434   0.00000  Uiso   1.00
O39    O     0.61497   0.13965   0.28367   0.00000  Uiso   1.00
O40    O     0.26789   0.04476   0.04343   0.00000  Uiso   1.00
N41    N     0.76566   0.07840   0.15698   0.00000  Uiso   1.00
N42    N     0.60761   0.37070   0.28478   0.00000  Uiso   1.00
N43    N     0.36028   0.01565   0.11359   0.00000  Uiso   1.00
N44    N     0.75636   0.98005   0.07435   0.00000  Uiso   1.00
N45    N     0.59832   0.27236   0.20215   0.00000  Uiso   1.00
N46    N     0.35098   0.91730   0.03096   0.00000  Uiso   1.00
C47    C     0.07867   0.33031   0.19238   0.00000  Uiso   1.00
C48    C     0.12793   0.37466   0.16243   0.00000  Uiso   1.00
C49    C     0.17452   0.46672   0.18327   0.00000  Uiso   1.00
C50    C     0.21503   0.49378   0.14943   0.00000  Uiso   1.00
C51    C     0.29243   0.57215   0.11097   0.00000  Uiso   1.00
C52    C     0.08438   0.17961   0.19765   0.00000  Uiso   1.00
C53    C     0.09435   0.10768   0.24812   0.00000  Uiso   1.00
C54    C     0.09819   0.97054   0.24392   0.00000  Uiso   1.00
C55    C     0.10794   0.74610   0.26014   0.00000  Uiso   1.00
C56    C     0.01622   0.35738   0.15047   0.00000  Uiso   1.00
C57    C     0.96888   0.43489   0.16127   0.00000  Uiso   1.00
C58    C     0.91532   0.44738   0.11735   0.00000  Uiso   1.00
C59    C     0.81924   0.49895   0.06031   0.00000  Uiso   1.00
C60    C     0.06774   0.21465   0.09520   0.00000  Uiso   1.00
C61    C     0.12199   0.31183   0.10965   0.00000  Uiso   1.00
C62    C     0.16243   0.33876   0.07576   0.00000  Uiso   1.00
C63    C     0.20908   0.43085   0.09656   0.00000  Uiso   1.00
C64    C     0.07844   0.11679   0.14487   0.00000  Uiso   1.00
C65    C     0.08226   0.97972   0.14060   0.00000  Uiso   1.00
C66    C     0.09224   0.90760   0.19105   0.00000  Uiso   1.00
C67    C     0.01028   0.29456   0.09769   0.00000  Uiso   1.00
C68    C     0.95678   0.30693   0.05375   0.00000  Uiso   1.00
C69    C     0.90937   0.38445   0.06448   0.00000  Uiso   1.00
H70    H     0.08329   0.37921   0.23347   0.00000  Uiso   1.00
H71    H     0.17911   0.51531   0.22413   0.00000  Uiso   1.00
H72    H     0.09894   0.15633   0.28895   0.00000  Uiso   1.00
H73    H     0.97349   0.48348   0.20212   0.00000  Uiso   1.00
H74    H     0.28273   0.63846   0.19050   0.00000  Uiso   1.00
H75    H     0.11368   0.88152   0.32719   0.00000  Uiso   1.00
H76    H     0.84913   0.57140   0.14408   0.00000  Uiso   1.00
H77    H     0.06311   0.16573   0.05411   0.00000  Uiso   1.00
H78    H     0.15782   0.29013   0.03492   0.00000  Uiso   1.00
H79    H     0.07766   0.93114   0.09975   0.00000  Uiso   1.00
H80    H     0.95220   0.25830   0.01291   0.00000  Uiso   1.00
H81    H     0.26545   0.45569   0.03693   0.00000  Uiso   1.00
H82    H     0.09640   0.69875   0.17362   0.00000  Uiso   1.00
H83    H     0.83185   0.38863   0.99051   0.00000  Uiso   1.00
O84    O     0.33677   0.63273   0.10434   0.00000  Uiso   1.00
O85    O     0.11497   0.63965   0.28367   0.00000  Uiso   1.00
O86    O     0.76789   0.54476   0.04343   0.00000  Uiso   1.00
N87    N     0.26566   0.57840   0.15698   0.00000  Uiso   1.00
N88    N     0.10761   0.87070   0.28478   0.00000  Uiso   1.00
N89    N     0.86028   0.51565   0.11359   0.00000  Uiso   1.00
N90    N     0.25636   0.48005   0.07435   0.00000  Uiso   1.00
N91    N     0.09832   0.77236   0.20215   0.00000  Uiso   1.00
N92    N     0.85098   0.41730   0.03096   0.00000  Uiso   1.00
C93    C     0.42133   0.83031   0.30762   0.00000  Uiso   1.00
C94    C     0.37207   0.87466   0.33757   0.00000  Uiso   1.00
C95    C     0.32548   0.96672   0.31673   0.00000  Uiso   1.00
C96    C     0.28497   0.99378   0.35057   0.00000  Uiso   1.00
C97    C     0.20757   0.07215   0.38903   0.00000  Uiso   1.00
C98    C     0.41562   0.67961   0.30235   0.00000  Uiso   1.00
C99    C     0.40565   0.60768   0.25188   0.00000  Uiso   1.00
C100   C     0.40181   0.47054   0.25608   0.00000  Uiso   1.00
C101   C     0.39206   0.24610   0.23986   0.00000  Uiso   1.00
C102   C     0.48378   0.85738   0.34953   0.00000  Uiso   1.00
C103   C     0.53112   0.93489   0.33873   0.00000  Uiso   1.00
C104   C     0.58468   0.94738   0.38265   0.00000  Uiso   1.00
C105   C     0.68076   0.99895   0.43969   0.00000  Uiso   1.00
C106   C     0.43226   0.71465   0.40480   0.00000  Uiso   1.00
C107   C     0.37801   0.81183   0.39035   0.00000  Uiso   1.00
C108   C     0.33757   0.83876   0.42424   0.00000  Uiso   1.00
C109   C     0.29092   0.93085   0.40344   0.00000  Uiso   1.00
C110   C     0.42156   0.61679   0.35513   0.00000  Uiso   1.00
C111   C     0.41774   0.47972   0.35940   0.00000  Uiso   1.00
C112   C     0.40776   0.40760   0.30895   0.00000  Uiso   1.00
C113   C     0.48972   0.79456   0.40231   0.00000  Uiso   1.00
C114   C     0.54322   0.80693   0.44625   0.00000  Uiso   1.00
C115   C     0.59063   0.88445   0.43552   0.00000  Uiso   1.00
H116   H     0.41671   0.87921   0.26653   0.00000  Uiso   1.00
H117   H     0.32089   0.01531   0.27587   0.00000  Uiso   1.00
H118   H     0.40106   0.65633   0.21105   0.00000  Uiso   1.00
H119   H     0.52651   0.98348   0.29788   0.00000  Uiso   1.00
H120   H     0.21727   0.13846   0.30950   0.00000  Uiso   1.00
H121   H     0.38632   0.38152   0.17281   0.00000  Uiso   1.00
H122   H     0.65087   0.07140   0.35592   0.00000  Uiso   1.00
H123   H     0.43689   0.66573   0.44589   0.00000  Uiso   1.00
H124   H     0.34218   0.79013   0.46508   0.00000  Uiso   1.00
H125   H     0.42234   0.43114   0.40025   0.00000  Uiso   1.00
H126   H     0.54780   0.75830   0.48709   0.00000  Uiso   1.00
H127   H     0.23455   0.95569   0.46307   0.00000  Uiso   1.00
H128   H     0.40360   0.19875   0.32638   0.00000  Uiso   1.00
H129   H     0.66815   0.88863   0.50949   0.00000  Uiso   1.00
O130   O     0.16323   0.13273   0.39566   0.00000  Uiso   1.00
O131   O     0.38503   0.13965   0.21633   0.00000  Uiso   1.00
O132   O     0.73211   0.04476   0.45657   0.00000  Uiso   1.00
N133   N     0.23434   0.07840   0.34302   0.00000  Uiso   1.00
N134   N     0.39239   0.37070   0.21522   0.00000  Uiso   1.00
N135   N     0.63972   0.01565   0.38641   0.00000  Uiso   1.00
N136   N     0.24364   0.98005   0.42565   0.00000  Uiso   1.00
N137   N     0.40168   0.27236   0.29785   0.00000  Uiso   1.00
N138   N     0.64902   0.91730   0.46904   0.00000  Uiso   1.00
C139   C     0.92133   0.33031   0.30762   0.00000  Uiso   1.00
C140   C     0.87207   0.37466   0.33757   0.00000  Uiso   1.00
C141   C     0.82548   0.46672   0.31673   0.00000  Uiso   1.00
C142   C     0.78497   0.49378   0.35057   0.00000  Uiso   1.00
C143   C     0.70757   0.57215   0.38903   0.00000  Uiso   1.00
C144   C     0.91562   0.17961   0.30235   0.00000  Uiso   1.00
C145   C     0.90565   0.10768   0.25188   0.00000  Uiso   1.00
C146   C     0.90181   0.97054   0.25608   0.00000  Uiso   1.00
C147   C     0.89206   0.74610   0.23986   0.00000  Uiso   1.00
C148   C     0.98378   0.35738   0.34953   0.00000  Uiso   1.00
C149   C     0.03112   0.43489   0.33873   0.00000  Uiso   1.00
C150   C     0.08468   0.44738   0.38265   0.00000  Uiso   1.00
C151   C     0.18076   0.49895   0.43969   0.00000  Uiso   1.00
C152   C     0.93226   0.21465   0.40480   0.00000  Uiso   1.00
C153   C     0.87801   0.31183   0.39035   0.00000  Uiso   1.00
C154   C     0.83757   0.33876   0.42424   0.00000  Uiso   1.00
C155   C     0.79092   0.43085   0.40344   0.00000  Uiso   1.00
C156   C     0.92156   0.11679   0.35513   0.00000  Uiso   1.00
C157   C     0.91774   0.97972   0.35940   0.00000  Uiso   1.00
C158   C     0.90776   0.90760   0.30895   0.00000  Uiso   1.00
C159   C     0.98972   0.29456   0.40231   0.00000  Uiso   1.00
C160   C     0.04322   0.30693   0.44625   0.00000  Uiso   1.00
C161   C     0.09063   0.38445   0.43552   0.00000  Uiso   1.00
H162   H     0.91671   0.37921   0.26653   0.00000  Uiso   1.00
H163   H     0.82089   0.51531   0.27587   0.00000  Uiso   1.00
H164   H     0.90106   0.15633   0.21105   0.00000  Uiso   1.00
H165   H     0.02651   0.48348   0.29788   0.00000  Uiso   1.00
H166   H     0.71727   0.63846   0.30950   0.00000  Uiso   1.00
H167   H     0.88632   0.88152   0.17281   0.00000  Uiso   1.00
H168   H     0.15087   0.57140   0.35592   0.00000  Uiso   1.00
H169   H     0.93689   0.16573   0.44589   0.00000  Uiso   1.00
H170   H     0.84218   0.29013   0.46508   0.00000  Uiso   1.00
H171   H     0.92234   0.93114   0.40025   0.00000  Uiso   1.00
H172   H     0.04780   0.25830   0.48709   0.00000  Uiso   1.00
H173   H     0.73455   0.45569   0.46307   0.00000  Uiso   1.00
H174   H     0.90360   0.69875   0.32638   0.00000  Uiso   1.00
H175   H     0.16815   0.38863   0.50949   0.00000  Uiso   1.00
O176   O     0.66323   0.63273   0.39566   0.00000  Uiso   1.00
O177   O     0.88503   0.63965   0.21633   0.00000  Uiso   1.00
O178   O     0.23211   0.54476   0.45657   0.00000  Uiso   1.00
N179   N     0.73434   0.57840   0.34302   0.00000  Uiso   1.00
N180   N     0.89239   0.87070   0.21522   0.00000  Uiso   1.00
N181   N     0.13972   0.51565   0.38641   0.00000  Uiso   1.00
N182   N     0.74364   0.48005   0.42565   0.00000  Uiso   1.00
N183   N     0.90168   0.77236   0.29785   0.00000  Uiso   1.00
N184   N     0.14902   0.41730   0.46904   0.00000  Uiso   1.00
C185   C     0.42133   0.16969   0.80762   0.00000  Uiso   1.00
C186   C     0.37207   0.12534   0.83757   0.00000  Uiso   1.00
C187   C     0.32548   0.03328   0.81673   0.00000  Uiso   1.00
C188   C     0.28497   0.00622   0.85057   0.00000  Uiso   1.00
C189   C     0.20757   0.92785   0.88903   0.00000  Uiso   1.00
C190   C     0.41562   0.32039   0.80235   0.00000  Uiso   1.00
C191   C     0.40565   0.39232   0.75188   0.00000  Uiso   1.00
C192   C     0.40181   0.52946   0.75608   0.00000  Uiso   1.00
C193   C     0.39206   0.75390   0.73986   0.00000  Uiso   1.00
C194   C     0.48378   0.14262   0.84953   0.00000  Uiso   1.00
C195   C     0.53112   0.06511   0.83873   0.00000  Uiso   1.00
C196   C     0.58468   0.05262   0.88265   0.00000  Uiso   1.00
C197   C     0.68076   0.00105   0.93969   0.00000  Uiso   1.00
C198   C     0.43226   0.28535   0.90480   0.00000  Uiso   1.00
C199   C     0.37801   0.18817   0.89035   0.00000  Uiso   1.00
C200   C     0.33757   0.16124   0.92424   0.00000  Uiso   1.00
C201   C     0.29092   0.06915   0.90344   0.00000  Uiso   1.00
C202   C     0.42156   0.38321   0.85513   0.00000  Uiso   1.00
C203   C     0.41774   0.52028   0.85940   0.00000  Uiso   1.00
C204   C     0.40776   0.59240   0.80895   0.00000  Uiso   1.00
C205   C     0.48972   0.20544   0.90231   0.00000  Uiso   1.00
C206   C     0.54322   0.19307   0.94625   0.00000  Uiso   1.00
C207   C     0.59063   0.11555   0.93552   0.00000  Uiso   1.00
H208   H     0.41671   0.12079   0.76653   0.00000  Uiso   1.00
H209   H     0.32089   0.98469   0.77587   0.00000  Uiso   1.00
H210   H     0.40106   0.34367   0.71105   0.00000  Uiso   1.00
H211   H     0.52651   0.01652   0.79788   0.00000  Uiso   1.00
H212   H     0.21727   0.86154   0.80950   0.00000  Uiso   1.00
H213   H     0.38632   0.61848   0.67281   0.00000  Uiso   1.00
H214   H     0.65087   0.92860   0.85592   0.00000  Uiso   1.00
H215   H     0.43689   0.33427   0.94589   0.00000  Uiso   1.00
H216   H     0.34218   0.20987   0.96508   0.00000  Uiso   1.00
H217   H     0.42234   0.56886   0.90025   0.00000  Uiso   1.00
H218   H     0.54780   0.24170   0.98709   0.00000  Uiso   1.00
H219   H     0.23455   0.04431   0.96307   0.00000  Uiso   1.00
H220   H     0.40360   0.80125   0.82638   0.00000  Uiso   1.00
H221   H     0.66815   0.11137   0.00949   0.00000  Uiso   1.00
O222   O     0.16323   0.86727   0.89566   0.00000  Uiso   1.00
O223   O     0.38503   0.86035   0.71633   0.00000  Uiso   1.00
O224   O     0.73211   0.95524   0.95657   0.00000  Uiso   1.00
N225   N     0.23434   0.92160   0.84302   0.00000  Uiso   1.00
N226   N     0.39239   0.62930   0.71522   0.00000  Uiso   1.00
N227   N     0.63972   0.98435   0.88641   0.00000  Uiso   1.00
N228   N     0.24364   0.01995   0.92565   0.00000  Uiso   1.00
N229   N     0.40168   0.72764   0.79785   0.00000  Uiso   1.00
N230   N     0.64902   0.08270   0.96904   0.00000  Uiso   1.00
C231   C     0.92133   0.66969   0.80762   0.00000  Uiso   1.00
C232   C     0.87207   0.62534   0.83757   0.00000  Uiso   1.00
C233   C     0.82548   0.53328   0.81673   0.00000  Uiso   1.00
C234   C     0.78497   0.50622   0.85057   0.00000  Uiso   1.00
C235   C     0.70757   0.42785   0.88903   0.00000  Uiso   1.00
C236   C     0.91562   0.82039   0.80235   0.00000  Uiso   1.00
C237   C     0.90565   0.89232   0.75188   0.00000  Uiso   1.00
C238   C     0.90181   0.02946   0.75608   0.00000  Uiso   1.00
C239   C     0.89206   0.25390   0.73986   0.00000  Uiso   1.00
C240   C     0.98378   0.64262   0.84953   0.00000  Uiso   1.00
C241   C     0.03112   0.56511   0.83873   0.00000  Uiso   1.00
C242   C     0.08468   0.55262   0.88265   0.00000  Uiso   1.00
C243   C     0.18076   0.50105   0.93969   0.00000  Uiso   1.00
C244   C     0.93226   0.78535   0.90480   0.00000  Uiso   1.00
C245   C     0.87801   0.68817   0.89035   0.00000  Uiso   1.00
C246   C     0.83757   0.66124   0.92424   0.00000  Uiso   1.00
C247   C     0.79092   0.56915   0.90344   0.00000  Uiso   1.00
C248   C     0.92156   0.88321   0.85513   0.00000  Uiso   1.00
C249   C     0.91774   0.02028   0.85940   0.00000  Uiso   1.00
C250   C     0.90776   0.09240   0.80895   0.00000  Uiso   1.00
C251   C     0.98972   0.70544   0.90231   0.00000  Uiso   1.00
C252   C     0.04322   0.69307   0.94625   0.00000  Uiso   1.00
C253   C     0.09063   0.61555   0.93552   0.00000  Uiso   1.00
H254   H     0.91671   0.62079   0.76653   0.00000  Uiso   1.00
H255   H     0.82089   0.48469   0.77587   0.00000  Uiso   1.00
H256   H     0.90106   0.84367   0.71105   0.00000  Uiso   1.00
H257   H     0.02651   0.51652   0.79788   0.00000  Uiso   1.00
H258   H     0.71727   0.36154   0.80950   0.00000  Uiso   1.00
H259   H     0.88632   0.11848   0.67281   0.00000  Uiso   1.00
H260   H     0.15087   0.42860   0.85592   0.00000  Uiso   1.00
H261   H     0.93689   0.83427   0.94589   0.00000  Uiso   1.00
H262   H     0.84218   0.70987   0.96508   0.00000  Uiso   1.00
H263   H     0.92234   0.06886   0.90025   0.00000  Uiso   1.00
H264   H     0.04780   0.74170   0.98709   0.00000  Uiso   1.00
H265   H     0.73455   0.54431   0.96307   0.00000  Uiso   1.00
H266   H     0.90360   0.30125   0.82638   0.00000  Uiso   1.00
H267   H     0.16815   0.61137   0.00949   0.00000  Uiso   1.00
O268   O     0.66323   0.36727   0.89566   0.00000  Uiso   1.00
O269   O     0.88503   0.36035   0.71633   0.00000  Uiso   1.00
O270   O     0.23211   0.45524   0.95657   0.00000  Uiso   1.00
N271   N     0.73434   0.42160   0.84302   0.00000  Uiso   1.00
N272   N     0.89239   0.12930   0.71522   0.00000  Uiso   1.00
N273   N     0.13972   0.48435   0.88641   0.00000  Uiso   1.00
N274   N     0.74364   0.51995   0.92565   0.00000  Uiso   1.00
N275   N     0.90168   0.22764   0.79785   0.00000  Uiso   1.00
N276   N     0.14902   0.58270   0.96904   0.00000  Uiso   1.00
C277   C     0.57867   0.16969   0.69238   0.00000  Uiso   1.00
C278   C     0.62793   0.12534   0.66243   0.00000  Uiso   1.00
C279   C     0.67452   0.03328   0.68327   0.00000  Uiso   1.00
C280   C     0.71503   0.00622   0.64943   0.00000  Uiso   1.00
C281   C     0.79243   0.92785   0.61097   0.00000  Uiso   1.00
C282   C     0.58438   0.32039   0.69765   0.00000  Uiso   1.00
C283   C     0.59435   0.39232   0.74812   0.00000  Uiso   1.00
C284   C     0.59819   0.52946   0.74392   0.00000  Uiso   1.00
C285   C     0.60794   0.75390   0.76014   0.00000  Uiso   1.00
C286   C     0.51622   0.14262   0.65047   0.00000  Uiso   1.00
C287   C     0.46888   0.06511   0.66127   0.00000  Uiso   1.00
C288   C     0.41532   0.05262   0.61735   0.00000  Uiso   1.00
C289   C     0.31924   0.00105   0.56031   0.00000  Uiso   1.00
C290   C     0.56774   0.28535   0.59520   0.00000  Uiso   1.00
C291   C     0.62199   0.18817   0.60965   0.00000  Uiso   1.00
C292   C     0.66243   0.16124   0.57576   0.00000  Uiso   1.00
C293   C     0.70908   0.06915   0.59656   0.00000  Uiso   1.00
C294   C     0.57844   0.38321   0.64487   0.00000  Uiso   1.00
C295   C     0.58226   0.52028   0.64060   0.00000  Uiso   1.00
C296   C     0.59224   0.59240   0.69105   0.00000  Uiso   1.00
C297   C     0.51028   0.20544   0.59769   0.00000  Uiso   1.00
C298   C     0.45678   0.19307   0.55375   0.00000  Uiso   1.00
C299   C     0.40937   0.11555   0.56448   0.00000  Uiso   1.00
H300   H     0.58329   0.12079   0.73347   0.00000  Uiso   1.00
H301   H     0.67911   0.98469   0.72413   0.00000  Uiso   1.00
H302   H     0.59894   0.34367   0.78895   0.00000  Uiso   1.00
H303   H     0.47349   0.01652   0.70212   0.00000  Uiso   1.00
H304   H     0.78273   0.86154   0.69050   0.00000  Uiso   1.00
H305   H     0.61368   0.61848   0.82719   0.00000  Uiso   1.00
H306   H     0.34913   0.92860   0.64408   0.00000  Uiso   1.00
H307   H     0.56311   0.33427   0.55411   0.00000  Uiso   1.00
H308   H     0.65782   0.20987   0.53492   0.00000  Uiso   1.00
H309   H     0.57766   0.56886   0.59975   0.00000  Uiso   1.00
H310   H     0.45220   0.24170   0.51291   0.00000  Uiso   1.00
H311   H     0.76545   0.04431   0.53693   0.00000  Uiso   1.00
H312   H     0.59640   0.80125   0.67362   0.00000  Uiso   1.00
H313   H     0.33185   0.11137   0.49051   0.00000  Uiso   1.00
O314   O     0.83677   0.86727   0.60434   0.00000  Uiso   1.00
O315   O     0.61497   0.86035   0.78367   0.00000  Uiso   1.00
O316   O     0.26789   0.95524   0.54343   0.00000  Uiso   1.00
N317   N     0.76566   0.92160   0.65698   0.00000  Uiso   1.00
N318   N     0.60761   0.62930   0.78478   0.00000  Uiso   1.00
N319   N     0.36028   0.98435   0.61359   0.00000  Uiso   1.00
N320   N     0.75636   0.01995   0.57435   0.00000  Uiso   1.00
N321   N     0.59832   0.72764   0.70215   0.00000  Uiso   1.00
N322   N     0.35098   0.08270   0.53096   0.00000  Uiso   1.00
C323   C     0.07867   0.66969   0.69238   0.00000  Uiso   1.00
C324   C     0.12793   0.62534   0.66243   0.00000  Uiso   1.00
C325   C     0.17452   0.53328   0.68327   0.00000  Uiso   1.00
C326   C     0.21503   0.50622   0.64943   0.00000  Uiso   1.00
C327   C     0.29243   0.42785   0.61097   0.00000  Uiso   1.00
C328   C     0.08438   0.82039   0.69765   0.00000  Uiso   1.00
C329   C     0.09435   0.89232   0.74812   0.00000  Uiso   1.00
C330   C     0.09819   0.02946   0.74392   0.00000  Uiso   1.00
C331   C     0.10794   0.25390   0.76014   0.00000  Uiso   1.00
C332   C     0.01622   0.64262   0.65047   0.00000  Uiso   1.00
C333   C     0.96888   0.56511   0.66127   0.00000  Uiso   1.00
C334   C     0.91532   0.55262   0.61735   0.00000  Uiso   1.00
C335   C     0.81924   0.50105   0.56031   0.00000  Uiso   1.00
C336   C     0.06774   0.78535   0.59520   0.00000  Uiso   1.00
C337   C     0.12199   0.68817   0.60965   0.00000  Uiso   1.00
C338   C     0.16243   0.66124   0.57576   0.00000  Uiso   1.00
C339   C     0.20908   0.56915   0.59656   0.00000  Uiso   1.00
C340   C     0.07844   0.88321   0.64487   0.00000  Uiso   1.00
C341   C     0.08226   0.02028   0.64060   0.00000  Uiso   1.00
C342   C     0.09224   0.09240   0.69105   0.00000  Uiso   1.00
C343   C     0.01028   0.70544   0.59769   0.00000  Uiso   1.00
C344   C     0.95678   0.69307   0.55375   0.00000  Uiso   1.00
C345   C     0.90937   0.61555   0.56448   0.00000  Uiso   1.00
H346   H     0.08329   0.62079   0.73347   0.00000  Uiso   1.00
H347   H     0.17911   0.48469   0.72413   0.00000  Uiso   1.00
H348   H     0.09894   0.84367   0.78895   0.00000  Uiso   1.00
H349   H     0.97349   0.51652   0.70212   0.00000  Uiso   1.00
H350   H     0.28273   0.36154   0.69050   0.00000  Uiso   1.00
H351   H     0.11368   0.11848   0.82719   0.00000  Uiso   1.00
H352   H     0.84913   0.42860   0.64408   0.00000  Uiso   1.00
H353   H     0.06311   0.83427   0.55411   0.00000  Uiso   1.00
H354   H     0.15782   0.70987   0.53492   0.00000  Uiso   1.00
H355   H     0.07766   0.06886   0.59975   0.00000  Uiso   1.00
H356   H     0.95220   0.74170   0.51291   0.00000  Uiso   1.00
H357   H     0.26545   0.54431   0.53693   0.00000  Uiso   1.00
H358   H     0.09640   0.30125   0.67362   0.00000  Uiso   1.00
H359   H     0.83185   0.61137   0.49051   0.00000  Uiso   1.00
O360   O     0.33677   0.36727   0.60434   0.00000  Uiso   1.00
O361   O     0.11497   0.36035   0.78367   0.00000  Uiso   1.00
O362   O     0.76789   0.45524   0.54343   0.00000  Uiso   1.00
N363   N     0.26566   0.42160   0.65698   0.00000  Uiso   1.00
N364   N     0.10761   0.12930   0.78478   0.00000  Uiso   1.00
N365   N     0.86028   0.48435   0.61359   0.00000  Uiso   1.00
N366   N     0.25636   0.51995   0.57435   0.00000  Uiso   1.00
N367   N     0.09832   0.22764   0.70215   0.00000  Uiso   1.00
N368   N     0.85098   0.58270   0.53096   0.00000  Uiso   1.00
