data_job_02958
_audit_creation_date              2018-12-19
_audit_creation_method            'Materials Studio'
_symmetry_space_group_name_H-M    'P1'
_symmetry_Int_Tables_number       1
_symmetry_cell_setting            triclinic
loop_
_symmetry_equiv_pos_as_xyz
  x,y,z
_cell_length_a                    23.4691
_cell_length_b                    27.2902
_cell_length_c                    40.7123
_cell_angle_alpha                 90.0000
_cell_angle_beta                  149.6907
_cell_angle_gamma                 90.0000
loop_
_atom_site_label
_atom_site_type_symbol
_atom_site_fract_x
_atom_site_fract_y
_atom_site_fract_z
_atom_site_U_iso_or_equiv
_atom_site_adp_type
_atom_site_occupancy
C1     C     0.71503   0.76503   0.66374   0.00000  Uiso   1.00
C2     C     0.81772   0.78671   0.73214   0.00000  Uiso   1.00
C3     C     0.90501   0.76020   0.78977   0.00000  Uiso   1.00
C4     C     0.99127   0.78685   0.84733   0.00000  Uiso   1.00
C5     C     0.15086   0.81271   0.95356   0.00000  Uiso   1.00
C6     C     0.61203   0.78587   0.63008   0.00000  Uiso   1.00
C7     C     0.52639   0.75865   0.60189   0.00000  Uiso   1.00
C8     C     0.43950   0.78459   0.57354   0.00000  Uiso   1.00
C9     C     0.27971   0.80915   0.52128   0.00000  Uiso   1.00
C10    C     0.71394   0.78723   0.62883   0.00000  Uiso   1.00
C11    C     0.71394   0.76116   0.59956   0.00000  Uiso   1.00
C12    C     0.71281   0.78824   0.57013   0.00000  Uiso   1.00
C13    C     0.71125   0.81492   0.51592   0.00000  Uiso   1.00
C14    C     0.71299   0.85949   0.66350   0.00000  Uiso   1.00
C15    C     0.81660   0.83802   0.73201   0.00000  Uiso   1.00
C16    C     0.90275   0.86472   0.78950   0.00000  Uiso   1.00
C17    C     0.99016   0.83825   0.84720   0.00000  Uiso   1.00
C18    C     0.61092   0.83718   0.62995   0.00000  Uiso   1.00
C19    C     0.52413   0.86316   0.60163   0.00000  Uiso   1.00
C20    C     0.43838   0.83599   0.57341   0.00000  Uiso   1.00
C21    C     0.71283   0.83854   0.62869   0.00000  Uiso   1.00
C22    C     0.71169   0.86567   0.59930   0.00000  Uiso   1.00
C23    C     0.71170   0.83965   0.57000   0.00000  Uiso   1.00
H24    H     0.71589   0.72508   0.66384   0.00000  Uiso   1.00
H25    H     0.90584   0.72049   0.78985   0.00000  Uiso   1.00
H26    H     0.52727   0.71894   0.60200   0.00000  Uiso   1.00
H27    H     0.71480   0.72145   0.59967   0.00000  Uiso   1.00
H28    H     0.11592   0.73803   0.92950   0.00000  Uiso   1.00
H29    H     0.31767   0.73477   0.53339   0.00000  Uiso   1.00
H30    H     0.71311   0.74005   0.52848   0.00000  Uiso   1.00
H31    H     0.71212   0.89944   0.66339   0.00000  Uiso   1.00
H32    H     0.90187   0.90442   0.78938   0.00000  Uiso   1.00
H33    H     0.52329   0.90287   0.60153   0.00000  Uiso   1.00
H34    H     0.71083   0.90538   0.59920   0.00000  Uiso   1.00
H35    H     0.11270   0.88732   0.92912   0.00000  Uiso   1.00
H36    H     0.31443   0.88405   0.53300   0.00000  Uiso   1.00
H37    H     0.70988   0.88934   0.52810   0.00000  Uiso   1.00
O38    O     0.23918   0.81281   0.01220   0.00000  Uiso   1.00
O39    O     0.19189   0.80852   0.49250   0.00000  Uiso   1.00
O40    O     0.71071   0.81546   0.48606   0.00000  Uiso   1.00
N41    N     0.08913   0.77248   0.91212   0.00000  Uiso   1.00
N42    N     0.34282   0.76943   0.54179   0.00000  Uiso   1.00
N43    N     0.71249   0.77437   0.53718   0.00000  Uiso   1.00
N44    N     0.08740   0.85281   0.91191   0.00000  Uiso   1.00
N45    N     0.34108   0.84976   0.54158   0.00000  Uiso   1.00
N46    N     0.71076   0.85470   0.53698   0.00000  Uiso   1.00
C47    C     0.71504   0.98533   0.33046   0.00000  Uiso   1.00
C48    C     0.61267   0.96352   0.26213   0.00000  Uiso   1.00
C49    C     0.52711   0.98992   0.20441   0.00000  Uiso   1.00
C50    C     0.44082   0.96316   0.14693   0.00000  Uiso   1.00
C51    C     0.28193   0.93709   0.04079   0.00000  Uiso   1.00
C52    C     0.71334   0.96466   0.36441   0.00000  Uiso   1.00
C53    C     0.71243   0.99202   0.39269   0.00000  Uiso   1.00
C54    C     0.71091   0.96623   0.42132   0.00000  Uiso   1.00
C55    C     0.70839   0.94193   0.47401   0.00000  Uiso   1.00
C56    C     0.81836   0.96309   0.36523   0.00000  Uiso   1.00
C57    C     0.90577   0.98913   0.39422   0.00000  Uiso   1.00
C58    C     0.99267   0.96202   0.42356   0.00000  Uiso   1.00
C59    C     0.15321   0.93529   0.47752   0.00000  Uiso   1.00
C60    C     0.71396   0.89087   0.33103   0.00000  Uiso   1.00
C61    C     0.61208   0.91221   0.26244   0.00000  Uiso   1.00
C62    C     0.52591   0.88541   0.20504   0.00000  Uiso   1.00
C63    C     0.44023   0.91176   0.14724   0.00000  Uiso   1.00
C64    C     0.71275   0.91335   0.36472   0.00000  Uiso   1.00
C65    C     0.71123   0.88751   0.39332   0.00000  Uiso   1.00
C66    C     0.71032   0.91483   0.42163   0.00000  Uiso   1.00
C67    C     0.81777   0.91178   0.36554   0.00000  Uiso   1.00
C68    C     0.90456   0.88462   0.39484   0.00000  Uiso   1.00
C69    C     0.99208   0.91062   0.42387   0.00000  Uiso   1.00
H70    H     0.71550   0.02528   0.33022   0.00000  Uiso   1.00
H71    H     0.52759   0.02962   0.20419   0.00000  Uiso   1.00
H72    H     0.71290   0.03172   0.39245   0.00000  Uiso   1.00
H73    H     0.90619   0.02884   0.39397   0.00000  Uiso   1.00
H74    H     0.31898   0.01181   0.06460   0.00000  Uiso   1.00
H75    H     0.70975   0.01625   0.46157   0.00000  Uiso   1.00
H76    H     0.11736   0.01016   0.46478   0.00000  Uiso   1.00
H77    H     0.71350   0.85092   0.33127   0.00000  Uiso   1.00
H78    H     0.52547   0.84570   0.20529   0.00000  Uiso   1.00
H79    H     0.71078   0.84781   0.39355   0.00000  Uiso   1.00
H80    H     0.90408   0.84492   0.39507   0.00000  Uiso   1.00
H81    H     0.31726   0.86254   0.06549   0.00000  Uiso   1.00
H82    H     0.70804   0.86697   0.46247   0.00000  Uiso   1.00
H83    H     0.11564   0.86088   0.46568   0.00000  Uiso   1.00
O84    O     0.19445   0.93689   0.98216   0.00000  Uiso   1.00
O85    O     0.70715   0.94270   0.50298   0.00000  Uiso   1.00
O86    O     0.24191   0.93471   0.50719   0.00000  Uiso   1.00
N87    N     0.34439   0.97740   0.08210   0.00000  Uiso   1.00
N88    N     0.70972   0.98154   0.45323   0.00000  Uiso   1.00
N89    N     0.09081   0.97585   0.45625   0.00000  Uiso   1.00
N90    N     0.34346   0.89707   0.08258   0.00000  Uiso   1.00
N91    N     0.70880   0.90122   0.45371   0.00000  Uiso   1.00
N92    N     0.08989   0.89553   0.45673   0.00000  Uiso   1.00
C93    C     0.24639   0.73457   0.17075   0.00000  Uiso   1.00
C94    C     0.34720   0.71297   0.23917   0.00000  Uiso   1.00
C95    C     0.43306   0.73955   0.29675   0.00000  Uiso   1.00
C96    C     0.51771   0.71298   0.35435   0.00000  Uiso   1.00
C97    C     0.67441   0.68724   0.46060   0.00000  Uiso   1.00
C98    C     0.14158   0.71389   0.13535   0.00000  Uiso   1.00
C99    C     0.05455   0.74124   0.10563   0.00000  Uiso   1.00
C100   C     0.96610   0.71544   0.07583   0.00000  Uiso   1.00
C101   C     0.80353   0.69114   0.02085   0.00000  Uiso   1.00
C102   C     0.24878   0.71212   0.13765   0.00000  Uiso   1.00
C103   C     0.25186   0.73798   0.10984   0.00000  Uiso   1.00
C104   C     0.25364   0.71069   0.08195   0.00000  Uiso   1.00
C105   C     0.25751   0.68363   0.03054   0.00000  Uiso   1.00
C106   C     0.24405   0.64011   0.17064   0.00000  Uiso   1.00
C107   C     0.34592   0.66166   0.23911   0.00000  Uiso   1.00
C108   C     0.43047   0.63504   0.29664   0.00000  Uiso   1.00
C109   C     0.51644   0.66158   0.35429   0.00000  Uiso   1.00
C110   C     0.14031   0.66258   0.13529   0.00000  Uiso   1.00
C111   C     0.05196   0.63674   0.10552   0.00000  Uiso   1.00
C112   C     0.96483   0.66404   0.07577   0.00000  Uiso   1.00
C113   C     0.24751   0.66081   0.13759   0.00000  Uiso   1.00
C114   C     0.24928   0.63347   0.10973   0.00000  Uiso   1.00
C115   C     0.25236   0.65929   0.08189   0.00000  Uiso   1.00
H116   H     0.24737   0.77451   0.17079   0.00000  Uiso   1.00
H117   H     0.43401   0.77925   0.29678   0.00000  Uiso   1.00
H118   H     0.05555   0.78095   0.10568   0.00000  Uiso   1.00
H119   H     0.25284   0.77768   0.10990   0.00000  Uiso   1.00
H120   H     0.64034   0.76189   0.43643   0.00000  Uiso   1.00
H121   H     0.84233   0.76545   0.03348   0.00000  Uiso   1.00
H122   H     0.25834   0.75858   0.04236   0.00000  Uiso   1.00
H123   H     0.24306   0.60016   0.17060   0.00000  Uiso   1.00
H124   H     0.42947   0.59534   0.29658   0.00000  Uiso   1.00
H125   H     0.05101   0.59703   0.10548   0.00000  Uiso   1.00
H126   H     0.24829   0.59377   0.10969   0.00000  Uiso   1.00
H127   H     0.63665   0.61261   0.43627   0.00000  Uiso   1.00
H128   H     0.83864   0.61618   0.03331   0.00000  Uiso   1.00
H129   H     0.25466   0.60931   0.04220   0.00000  Uiso   1.00
O130   O     0.76118   0.68722   0.51923   0.00000  Uiso   1.00
O131   O     0.71421   0.69191   0.99056   0.00000  Uiso   1.00
O132   O     0.26002   0.68288   0.00221   0.00000  Uiso   1.00
N133   N     0.61390   0.72742   0.41910   0.00000  Uiso   1.00
N134   N     0.86782   0.73075   0.04238   0.00000  Uiso   1.00
N135   N     0.25673   0.72432   0.05066   0.00000  Uiso   1.00
N136   N     0.61192   0.64709   0.41902   0.00000  Uiso   1.00
N137   N     0.86584   0.65043   0.04229   0.00000  Uiso   1.00
N138   N     0.25474   0.64400   0.05058   0.00000  Uiso   1.00
C139   C     0.24636   0.51448   0.83720   0.00000  Uiso   1.00
C140   C     0.14231   0.53631   0.76891   0.00000  Uiso   1.00
C141   C     0.05541   0.50993   0.71117   0.00000  Uiso   1.00
C142   C     0.96769   0.53669   0.65374   0.00000  Uiso   1.00
C143   C     0.80621   0.56279   0.54765   0.00000  Uiso   1.00
C144   C     0.24792   0.53500   0.87282   0.00000  Uiso   1.00
C145   C     0.24984   0.50752   0.90245   0.00000  Uiso   1.00
C146   C     0.25104   0.53319   0.93249   0.00000  Uiso   1.00
C147   C     0.25360   0.55725   0.98775   0.00000  Uiso   1.00
C148   C     0.34798   0.53685   0.87035   0.00000  Uiso   1.00
C149   C     0.43405   0.51092   0.89792   0.00000  Uiso   1.00
C150   C     0.51952   0.53815   0.92589   0.00000  Uiso   1.00
C151   C     0.67744   0.56508   0.97732   0.00000  Uiso   1.00
C152   C     0.24511   0.60893   0.83788   0.00000  Uiso   1.00
C153   C     0.14163   0.58762   0.76928   0.00000  Uiso   1.00
C154   C     0.05403   0.61443   0.71192   0.00000  Uiso   1.00
C155   C     0.96701   0.58809   0.65411   0.00000  Uiso   1.00
C156   C     0.24724   0.58631   0.87319   0.00000  Uiso   1.00
C157   C     0.24846   0.61202   0.90320   0.00000  Uiso   1.00
C158   C     0.25036   0.58459   0.93286   0.00000  Uiso   1.00
C159   C     0.34731   0.58816   0.87072   0.00000  Uiso   1.00
C160   C     0.43266   0.61543   0.89866   0.00000  Uiso   1.00
C161   C     0.51884   0.58954   0.92626   0.00000  Uiso   1.00
H162   H     0.24689   0.47454   0.83692   0.00000  Uiso   1.00
H163   H     0.05596   0.47022   0.71091   0.00000  Uiso   1.00
H164   H     0.25037   0.46782   0.90216   0.00000  Uiso   1.00
H165   H     0.43455   0.47122   0.89762   0.00000  Uiso   1.00
H166   H     0.84396   0.48806   0.57137   0.00000  Uiso   1.00
H167   H     0.25392   0.48299   0.97464   0.00000  Uiso   1.00
H168   H     0.64230   0.49016   0.96508   0.00000  Uiso   1.00
H169   H     0.24458   0.64888   0.83817   0.00000  Uiso   1.00
H170   H     0.05353   0.65413   0.71222   0.00000  Uiso   1.00
H171   H     0.24794   0.65173   0.90347   0.00000  Uiso   1.00
H172   H     0.43211   0.65513   0.89894   0.00000  Uiso   1.00
H173   H     0.84198   0.63733   0.57243   0.00000  Uiso   1.00
H174   H     0.25195   0.63226   0.97571   0.00000  Uiso   1.00
H175   H     0.64032   0.63943   0.96615   0.00000  Uiso   1.00
O176   O     0.71731   0.56301   0.48903   0.00000  Uiso   1.00
O177   O     0.25519   0.55635   0.01812   0.00000  Uiso   1.00
O178   O     0.76472   0.56576   0.00557   0.00000  Uiso   1.00
N179   N     0.86973   0.52247   0.58890   0.00000  Uiso   1.00
N180   N     0.25300   0.51773   0.96593   0.00000  Uiso   1.00
N181   N     0.61612   0.52444   0.95701   0.00000  Uiso   1.00
N182   N     0.86866   0.60279   0.58948   0.00000  Uiso   1.00
N183   N     0.25194   0.59805   0.96651   0.00000  Uiso   1.00
N184   N     0.61505   0.60476   0.95758   0.00000  Uiso   1.00
C185   C     0.71503   0.23497   0.16374   0.00000  Uiso   1.00
C186   C     0.81772   0.21329   0.23214   0.00000  Uiso   1.00
C187   C     0.90501   0.23980   0.28977   0.00000  Uiso   1.00
C188   C     0.99127   0.21315   0.34733   0.00000  Uiso   1.00
C189   C     0.15086   0.18729   0.45356   0.00000  Uiso   1.00
C190   C     0.61203   0.21413   0.13008   0.00000  Uiso   1.00
C191   C     0.52639   0.24135   0.10189   0.00000  Uiso   1.00
C192   C     0.43950   0.21541   0.07354   0.00000  Uiso   1.00
C193   C     0.27971   0.19085   0.02128   0.00000  Uiso   1.00
C194   C     0.71394   0.21277   0.12883   0.00000  Uiso   1.00
C195   C     0.71394   0.23884   0.09956   0.00000  Uiso   1.00
C196   C     0.71281   0.21176   0.07013   0.00000  Uiso   1.00
C197   C     0.71125   0.18508   0.01592   0.00000  Uiso   1.00
C198   C     0.71299   0.14051   0.16350   0.00000  Uiso   1.00
C199   C     0.81660   0.16198   0.23201   0.00000  Uiso   1.00
C200   C     0.90275   0.13528   0.28950   0.00000  Uiso   1.00
C201   C     0.99016   0.16175   0.34720   0.00000  Uiso   1.00
C202   C     0.61092   0.16282   0.12995   0.00000  Uiso   1.00
C203   C     0.52413   0.13684   0.10163   0.00000  Uiso   1.00
C204   C     0.43838   0.16401   0.07341   0.00000  Uiso   1.00
C205   C     0.71283   0.16146   0.12869   0.00000  Uiso   1.00
C206   C     0.71169   0.13433   0.09930   0.00000  Uiso   1.00
C207   C     0.71170   0.16035   0.07000   0.00000  Uiso   1.00
H208   H     0.71589   0.27492   0.16384   0.00000  Uiso   1.00
H209   H     0.90584   0.27951   0.28985   0.00000  Uiso   1.00
H210   H     0.52727   0.28106   0.10200   0.00000  Uiso   1.00
H211   H     0.71480   0.27855   0.09967   0.00000  Uiso   1.00
H212   H     0.11592   0.26197   0.42950   0.00000  Uiso   1.00
H213   H     0.31767   0.26523   0.03339   0.00000  Uiso   1.00
H214   H     0.71311   0.25995   0.02848   0.00000  Uiso   1.00
H215   H     0.71212   0.10056   0.16339   0.00000  Uiso   1.00
H216   H     0.90187   0.09558   0.28938   0.00000  Uiso   1.00
H217   H     0.52329   0.09713   0.10153   0.00000  Uiso   1.00
H218   H     0.71083   0.09462   0.09920   0.00000  Uiso   1.00
H219   H     0.11270   0.11268   0.42912   0.00000  Uiso   1.00
H220   H     0.31443   0.11595   0.03300   0.00000  Uiso   1.00
H221   H     0.70988   0.11066   0.02810   0.00000  Uiso   1.00
O222   O     0.23918   0.18719   0.51220   0.00000  Uiso   1.00
O223   O     0.19189   0.19148   0.99250   0.00000  Uiso   1.00
O224   O     0.71071   0.18454   0.98606   0.00000  Uiso   1.00
N225   N     0.08913   0.22752   0.41212   0.00000  Uiso   1.00
N226   N     0.34282   0.23057   0.04179   0.00000  Uiso   1.00
N227   N     0.71249   0.22563   0.03718   0.00000  Uiso   1.00
N228   N     0.08740   0.14719   0.41191   0.00000  Uiso   1.00
N229   N     0.34108   0.15024   0.04158   0.00000  Uiso   1.00
N230   N     0.71076   0.14530   0.03698   0.00000  Uiso   1.00
C231   C     0.71504   0.01467   0.83046   0.00000  Uiso   1.00
C232   C     0.61267   0.03648   0.76213   0.00000  Uiso   1.00
C233   C     0.52711   0.01008   0.70441   0.00000  Uiso   1.00
C234   C     0.44082   0.03684   0.64693   0.00000  Uiso   1.00
C235   C     0.28193   0.06291   0.54079   0.00000  Uiso   1.00
C236   C     0.71334   0.03534   0.86441   0.00000  Uiso   1.00
C237   C     0.71243   0.00798   0.89269   0.00000  Uiso   1.00
C238   C     0.71091   0.03377   0.92132   0.00000  Uiso   1.00
C239   C     0.70839   0.05807   0.97401   0.00000  Uiso   1.00
C240   C     0.81836   0.03691   0.86523   0.00000  Uiso   1.00
C241   C     0.90577   0.01087   0.89422   0.00000  Uiso   1.00
C242   C     0.99267   0.03798   0.92356   0.00000  Uiso   1.00
C243   C     0.15321   0.06471   0.97752   0.00000  Uiso   1.00
C244   C     0.71396   0.10913   0.83103   0.00000  Uiso   1.00
C245   C     0.61208   0.08779   0.76244   0.00000  Uiso   1.00
C246   C     0.52591   0.11459   0.70504   0.00000  Uiso   1.00
C247   C     0.44023   0.08824   0.64724   0.00000  Uiso   1.00
C248   C     0.71275   0.08665   0.86472   0.00000  Uiso   1.00
C249   C     0.71123   0.11249   0.89332   0.00000  Uiso   1.00
C250   C     0.71032   0.08517   0.92163   0.00000  Uiso   1.00
C251   C     0.81777   0.08822   0.86554   0.00000  Uiso   1.00
C252   C     0.90456   0.11538   0.89484   0.00000  Uiso   1.00
C253   C     0.99208   0.08938   0.92387   0.00000  Uiso   1.00
H254   H     0.71550   0.97472   0.83022   0.00000  Uiso   1.00
H255   H     0.52759   0.97038   0.70419   0.00000  Uiso   1.00
H256   H     0.71290   0.96828   0.89245   0.00000  Uiso   1.00
H257   H     0.90619   0.97116   0.89397   0.00000  Uiso   1.00
H258   H     0.31898   0.98819   0.56460   0.00000  Uiso   1.00
H259   H     0.70975   0.98375   0.96157   0.00000  Uiso   1.00
H260   H     0.11736   0.98984   0.96478   0.00000  Uiso   1.00
H261   H     0.71350   0.14908   0.83127   0.00000  Uiso   1.00
H262   H     0.52547   0.15430   0.70529   0.00000  Uiso   1.00
H263   H     0.71078   0.15219   0.89355   0.00000  Uiso   1.00
H264   H     0.90408   0.15508   0.89507   0.00000  Uiso   1.00
H265   H     0.31726   0.13746   0.56549   0.00000  Uiso   1.00
H266   H     0.70804   0.13303   0.96247   0.00000  Uiso   1.00
H267   H     0.11564   0.13912   0.96568   0.00000  Uiso   1.00
O268   O     0.19445   0.06311   0.48216   0.00000  Uiso   1.00
O269   O     0.70715   0.05730   0.00298   0.00000  Uiso   1.00
O270   O     0.24191   0.06529   0.00719   0.00000  Uiso   1.00
N271   N     0.34439   0.02260   0.58210   0.00000  Uiso   1.00
N272   N     0.70972   0.01846   0.95323   0.00000  Uiso   1.00
N273   N     0.09081   0.02415   0.95625   0.00000  Uiso   1.00
N274   N     0.34346   0.10293   0.58258   0.00000  Uiso   1.00
N275   N     0.70880   0.09878   0.95371   0.00000  Uiso   1.00
N276   N     0.08989   0.10447   0.95673   0.00000  Uiso   1.00
C277   C     0.24639   0.26543   0.67075   0.00000  Uiso   1.00
C278   C     0.34720   0.28703   0.73917   0.00000  Uiso   1.00
C279   C     0.43306   0.26045   0.79675   0.00000  Uiso   1.00
C280   C     0.51771   0.28702   0.85435   0.00000  Uiso   1.00
C281   C     0.67441   0.31276   0.96060   0.00000  Uiso   1.00
C282   C     0.14158   0.28611   0.63535   0.00000  Uiso   1.00
C283   C     0.05455   0.25876   0.60563   0.00000  Uiso   1.00
C284   C     0.96610   0.28456   0.57583   0.00000  Uiso   1.00
C285   C     0.80353   0.30886   0.52085   0.00000  Uiso   1.00
C286   C     0.24878   0.28788   0.63765   0.00000  Uiso   1.00
C287   C     0.25186   0.26202   0.60984   0.00000  Uiso   1.00
C288   C     0.25364   0.28931   0.58195   0.00000  Uiso   1.00
C289   C     0.25751   0.31637   0.53054   0.00000  Uiso   1.00
C290   C     0.24405   0.35989   0.67064   0.00000  Uiso   1.00
C291   C     0.34592   0.33834   0.73911   0.00000  Uiso   1.00
C292   C     0.43047   0.36496   0.79664   0.00000  Uiso   1.00
C293   C     0.51644   0.33842   0.85429   0.00000  Uiso   1.00
C294   C     0.14031   0.33742   0.63529   0.00000  Uiso   1.00
C295   C     0.05196   0.36326   0.60552   0.00000  Uiso   1.00
C296   C     0.96483   0.33596   0.57577   0.00000  Uiso   1.00
C297   C     0.24751   0.33919   0.63759   0.00000  Uiso   1.00
C298   C     0.24928   0.36653   0.60973   0.00000  Uiso   1.00
C299   C     0.25236   0.34071   0.58189   0.00000  Uiso   1.00
H300   H     0.24737   0.22549   0.67079   0.00000  Uiso   1.00
H301   H     0.43401   0.22075   0.79678   0.00000  Uiso   1.00
H302   H     0.05555   0.21905   0.60568   0.00000  Uiso   1.00
H303   H     0.25284   0.22232   0.60990   0.00000  Uiso   1.00
H304   H     0.64034   0.23811   0.93643   0.00000  Uiso   1.00
H305   H     0.84233   0.23455   0.53348   0.00000  Uiso   1.00
H306   H     0.25834   0.24142   0.54236   0.00000  Uiso   1.00
H307   H     0.24306   0.39984   0.67060   0.00000  Uiso   1.00
H308   H     0.42947   0.40466   0.79658   0.00000  Uiso   1.00
H309   H     0.05101   0.40297   0.60548   0.00000  Uiso   1.00
H310   H     0.24829   0.40623   0.60969   0.00000  Uiso   1.00
H311   H     0.63665   0.38739   0.93627   0.00000  Uiso   1.00
H312   H     0.83864   0.38382   0.53331   0.00000  Uiso   1.00
H313   H     0.25466   0.39069   0.54220   0.00000  Uiso   1.00
O314   O     0.76118   0.31278   0.01923   0.00000  Uiso   1.00
O315   O     0.71421   0.30809   0.49056   0.00000  Uiso   1.00
O316   O     0.26002   0.31712   0.50221   0.00000  Uiso   1.00
N317   N     0.61390   0.27258   0.91910   0.00000  Uiso   1.00
N318   N     0.86782   0.26925   0.54238   0.00000  Uiso   1.00
N319   N     0.25673   0.27568   0.55066   0.00000  Uiso   1.00
N320   N     0.61192   0.35291   0.91902   0.00000  Uiso   1.00
N321   N     0.86584   0.34957   0.54229   0.00000  Uiso   1.00
N322   N     0.25474   0.35600   0.55058   0.00000  Uiso   1.00
C323   C     0.24636   0.48552   0.33720   0.00000  Uiso   1.00
C324   C     0.14231   0.46369   0.26891   0.00000  Uiso   1.00
C325   C     0.05541   0.49007   0.21117   0.00000  Uiso   1.00
C326   C     0.96769   0.46331   0.15374   0.00000  Uiso   1.00
C327   C     0.80621   0.43721   0.04765   0.00000  Uiso   1.00
C328   C     0.24792   0.46500   0.37282   0.00000  Uiso   1.00
C329   C     0.24984   0.49248   0.40245   0.00000  Uiso   1.00
C330   C     0.25104   0.46681   0.43249   0.00000  Uiso   1.00
C331   C     0.25360   0.44275   0.48775   0.00000  Uiso   1.00
C332   C     0.34798   0.46315   0.37035   0.00000  Uiso   1.00
C333   C     0.43405   0.48908   0.39792   0.00000  Uiso   1.00
C334   C     0.51952   0.46185   0.42589   0.00000  Uiso   1.00
C335   C     0.67744   0.43492   0.47732   0.00000  Uiso   1.00
C336   C     0.24511   0.39107   0.33788   0.00000  Uiso   1.00
C337   C     0.14163   0.41238   0.26928   0.00000  Uiso   1.00
C338   C     0.05403   0.38557   0.21192   0.00000  Uiso   1.00
C339   C     0.96701   0.41191   0.15411   0.00000  Uiso   1.00
C340   C     0.24724   0.41369   0.37319   0.00000  Uiso   1.00
C341   C     0.24846   0.38798   0.40320   0.00000  Uiso   1.00
C342   C     0.25036   0.41541   0.43286   0.00000  Uiso   1.00
C343   C     0.34731   0.41184   0.37072   0.00000  Uiso   1.00
C344   C     0.43266   0.38457   0.39866   0.00000  Uiso   1.00
C345   C     0.51884   0.41046   0.42626   0.00000  Uiso   1.00
H346   H     0.24689   0.52546   0.33692   0.00000  Uiso   1.00
H347   H     0.05596   0.52978   0.21091   0.00000  Uiso   1.00
H348   H     0.25037   0.53218   0.40216   0.00000  Uiso   1.00
H349   H     0.43455   0.52878   0.39762   0.00000  Uiso   1.00
H350   H     0.84396   0.51194   0.07137   0.00000  Uiso   1.00
H351   H     0.25392   0.51701   0.47464   0.00000  Uiso   1.00
H352   H     0.64230   0.50984   0.46508   0.00000  Uiso   1.00
H353   H     0.24458   0.35112   0.33817   0.00000  Uiso   1.00
H354   H     0.05353   0.34587   0.21222   0.00000  Uiso   1.00
H355   H     0.24794   0.34827   0.40347   0.00000  Uiso   1.00
H356   H     0.43211   0.34487   0.39894   0.00000  Uiso   1.00
H357   H     0.84198   0.36267   0.07243   0.00000  Uiso   1.00
H358   H     0.25195   0.36774   0.47571   0.00000  Uiso   1.00
H359   H     0.64032   0.36057   0.46615   0.00000  Uiso   1.00
O360   O     0.71731   0.43699   0.98903   0.00000  Uiso   1.00
O361   O     0.25519   0.44365   0.51812   0.00000  Uiso   1.00
O362   O     0.76472   0.43424   0.50557   0.00000  Uiso   1.00
N363   N     0.86973   0.47753   0.08890   0.00000  Uiso   1.00
N364   N     0.25300   0.48227   0.46593   0.00000  Uiso   1.00
N365   N     0.61612   0.47556   0.45701   0.00000  Uiso   1.00
N366   N     0.86866   0.39721   0.08948   0.00000  Uiso   1.00
N367   N     0.25194   0.40195   0.46651   0.00000  Uiso   1.00
N368   N     0.61505   0.39524   0.45758   0.00000  Uiso   1.00
