data_job_06006
_audit_creation_date              2018-12-19
_audit_creation_method            'Materials Studio'
_symmetry_space_group_name_H-M    'P1'
_symmetry_Int_Tables_number       1
_symmetry_cell_setting            triclinic
loop_
_symmetry_equiv_pos_as_xyz
  x,y,z
_cell_length_a                    16.3372
_cell_length_b                    16.3256
_cell_length_c                    16.3138
_cell_angle_alpha                 107.5600
_cell_angle_beta                  107.5490
_cell_angle_gamma                 107.5370
loop_
_atom_site_label
_atom_site_type_symbol
_atom_site_fract_x
_atom_site_fract_y
_atom_site_fract_z
_atom_site_U_iso_or_equiv
_atom_site_adp_type
_atom_site_occupancy
C1     C     0.10144   0.12487   0.47309   0.00000  Uiso   1.00
C2     C     0.08360   0.15695   0.39336   0.00000  Uiso   1.00
C3     C     0.99729   0.12046   0.31495   0.00000  Uiso   1.00
C4     C     0.99564   0.15935   0.24995   0.00000  Uiso   1.00
C5     C     0.95552   0.19806   0.12414   0.00000  Uiso   1.00
C6     C     0.18215   0.09540   0.47686   0.00000  Uiso   1.00
C7     C     0.17870   0.00717   0.46866   0.00000  Uiso   1.00
C8     C     0.26003   0.99426   0.47396   0.00000  Uiso   1.00
C9     C     0.37294   0.93745   0.47784   0.00000  Uiso   1.00
C10    C     0.14174   0.21405   0.56550   0.00000  Uiso   1.00
C11    C     0.10433   0.22557   0.63186   0.00000  Uiso   1.00
C12    C     0.15165   0.31254   0.71180   0.00000  Uiso   1.00
C13    C     0.20181   0.43994   0.85333   0.00000  Uiso   1.00
C14    C     0.25201   0.25883   0.49710   0.00000  Uiso   1.00
C15    C     0.16539   0.22971   0.40640   0.00000  Uiso   1.00
C16    C     0.16388   0.26867   0.34151   0.00000  Uiso   1.00
C17    C     0.07758   0.23224   0.26301   0.00000  Uiso   1.00
C18    C     0.26394   0.16816   0.48989   0.00000  Uiso   1.00
C19    C     0.34529   0.15538   0.49521   0.00000  Uiso   1.00
C20    C     0.34197   0.06715   0.48702   0.00000  Uiso   1.00
C21    C     0.22353   0.28681   0.57854   0.00000  Uiso   1.00
C22    C     0.27092   0.37378   0.65841   0.00000  Uiso   1.00
C23    C     0.23359   0.38543   0.72487   0.00000  Uiso   1.00
H24    H     0.03777   0.06822   0.46294   0.00000  Uiso   1.00
H25    H     0.93401   0.06414   0.30488   0.00000  Uiso   1.00
H26    H     0.11540   0.95088   0.45858   0.00000  Uiso   1.00
H27    H     0.04104   0.16925   0.62174   0.00000  Uiso   1.00
H28    H     0.85506   0.09169   0.13537   0.00000  Uiso   1.00
H29    H     0.23754   0.85288   0.45948   0.00000  Uiso   1.00
H30    H     0.08074   0.31334   0.80355   0.00000  Uiso   1.00
H31    H     0.31569   0.31547   0.50725   0.00000  Uiso   1.00
H32    H     0.22718   0.32497   0.35162   0.00000  Uiso   1.00
H33    H     0.40857   0.21170   0.50531   0.00000  Uiso   1.00
H34    H     0.33421   0.43007   0.66848   0.00000  Uiso   1.00
H35    H     0.09300   0.30338   0.17330   0.00000  Uiso   1.00
H36    H     0.47549   0.06457   0.49741   0.00000  Uiso   1.00
H37    H     0.31868   0.52504   0.84148   0.00000  Uiso   1.00
O38    O     0.91080   0.19930   0.05114   0.00000  Uiso   1.00
O39    O     0.41261   0.88600   0.47637   0.00000  Uiso   1.00
O40    O     0.20688   0.49011   0.92778   0.00000  Uiso   1.00
N41    N     0.92320   0.14022   0.16567   0.00000  Uiso   1.00
N42    N     0.28080   0.91694   0.46867   0.00000  Uiso   1.00
N43    N     0.13421   0.34743   0.79036   0.00000  Uiso   1.00
N44    N     0.05124   0.25413   0.18608   0.00000  Uiso   1.00
N45    N     0.40883   0.03086   0.48908   0.00000  Uiso   1.00
N46    N     0.26224   0.46134   0.81077   0.00000  Uiso   1.00
C47    C     0.47286   0.10134   0.12486   0.00000  Uiso   1.00
C48    C     0.39326   0.08353   0.15699   0.00000  Uiso   1.00
C49    C     0.31497   0.99716   0.12048   0.00000  Uiso   1.00
C50    C     0.25008   0.99556   0.15943   0.00000  Uiso   1.00
C51    C     0.12449   0.95547   0.19822   0.00000  Uiso   1.00
C52    C     0.47662   0.18211   0.09539   0.00000  Uiso   1.00
C53    C     0.46842   0.17864   0.00708   0.00000  Uiso   1.00
C54    C     0.47372   0.26003   0.99418   0.00000  Uiso   1.00
C55    C     0.47761   0.37301   0.93735   0.00000  Uiso   1.00
C56    C     0.56513   0.14166   0.21408   0.00000  Uiso   1.00
C57    C     0.63137   0.10420   0.22558   0.00000  Uiso   1.00
C58    C     0.71120   0.15155   0.31261   0.00000  Uiso   1.00
C59    C     0.85251   0.20172   0.44006   0.00000  Uiso   1.00
C60    C     0.49686   0.25206   0.25896   0.00000  Uiso   1.00
C61    C     0.40631   0.16540   0.22983   0.00000  Uiso   1.00
C62    C     0.34152   0.16393   0.26885   0.00000  Uiso   1.00
C63    C     0.26314   0.07757   0.23240   0.00000  Uiso   1.00
C64    C     0.48966   0.26398   0.16822   0.00000  Uiso   1.00
C65    C     0.49498   0.34540   0.15545   0.00000  Uiso   1.00
C66    C     0.48679   0.34204   0.06715   0.00000  Uiso   1.00
C67    C     0.57817   0.22353   0.28693   0.00000  Uiso   1.00
C68    C     0.65792   0.27095   0.37395   0.00000  Uiso   1.00
C69    C     0.72427   0.23356   0.38557   0.00000  Uiso   1.00
H70    H     0.46271   0.03760   0.06815   0.00000  Uiso   1.00
H71    H     0.30489   0.93383   0.06410   0.00000  Uiso   1.00
H72    H     0.45834   0.11528   0.95073   0.00000  Uiso   1.00
H73    H     0.62126   0.04084   0.16920   0.00000  Uiso   1.00
H74    H     0.13566   0.85488   0.09173   0.00000  Uiso   1.00
H75    H     0.45924   0.23749   0.85268   0.00000  Uiso   1.00
H76    H     0.80279   0.08053   0.31335   0.00000  Uiso   1.00
H77    H     0.50702   0.31580   0.31567   0.00000  Uiso   1.00
H78    H     0.35163   0.22729   0.32522   0.00000  Uiso   1.00
H79    H     0.50508   0.40874   0.21184   0.00000  Uiso   1.00
H80    H     0.66799   0.33431   0.43030   0.00000  Uiso   1.00
H81    H     0.17360   0.09307   0.30365   0.00000  Uiso   1.00
H82    H     0.49718   0.47568   0.06460   0.00000  Uiso   1.00
H83    H     0.84072   0.31872   0.52527   0.00000  Uiso   1.00
O84    O     0.05160   0.91074   0.19948   0.00000  Uiso   1.00
O85    O     0.47614   0.41270   0.88587   0.00000  Uiso   1.00
O86    O     0.92685   0.20678   0.49025   0.00000  Uiso   1.00
N87    N     0.16593   0.92308   0.14031   0.00000  Uiso   1.00
N88    N     0.46844   0.28079   0.91681   0.00000  Uiso   1.00
N89    N     0.78963   0.13407   0.34748   0.00000  Uiso   1.00
N90    N     0.18634   0.05125   0.25434   0.00000  Uiso   1.00
N91    N     0.48885   0.40896   0.03084   0.00000  Uiso   1.00
N92    N     0.81004   0.26223   0.46152   0.00000  Uiso   1.00
C93    C     0.12487   0.47295   0.10121   0.00000  Uiso   1.00
C94    C     0.15694   0.39328   0.08335   0.00000  Uiso   1.00
C95    C     0.12046   0.31490   0.99691   0.00000  Uiso   1.00
C96    C     0.15934   0.24995   0.99526   0.00000  Uiso   1.00
C97    C     0.19803   0.12422   0.95509   0.00000  Uiso   1.00
C98    C     0.09546   0.47676   0.18206   0.00000  Uiso   1.00
C99    C     0.00730   0.46859   0.17862   0.00000  Uiso   1.00
C100   C     0.99444   0.47392   0.26009   0.00000  Uiso   1.00
C101   C     0.93771   0.47786   0.37319   0.00000  Uiso   1.00
C102   C     0.21396   0.56528   0.14156   0.00000  Uiso   1.00
C103   C     0.22544   0.63156   0.10407   0.00000  Uiso   1.00
C104   C     0.31234   0.71143   0.15145   0.00000  Uiso   1.00
C105   C     0.43961   0.85282   0.20165   0.00000  Uiso   1.00
C106   C     0.25877   0.49697   0.25201   0.00000  Uiso   1.00
C107   C     0.22966   0.40632   0.16526   0.00000  Uiso   1.00
C108   C     0.26861   0.34147   0.16375   0.00000  Uiso   1.00
C109   C     0.23220   0.26301   0.07732   0.00000  Uiso   1.00
C110   C     0.16818   0.48980   0.26397   0.00000  Uiso   1.00
C111   C     0.15545   0.49515   0.34547   0.00000  Uiso   1.00
C112   C     0.06730   0.48698   0.34215   0.00000  Uiso   1.00
C113   C     0.28670   0.57832   0.22347   0.00000  Uiso   1.00
C114   C     0.37359   0.65812   0.27092   0.00000  Uiso   1.00
C115   C     0.38520   0.72450   0.23351   0.00000  Uiso   1.00
H116   H     0.06824   0.46280   0.03744   0.00000  Uiso   1.00
H117   H     0.06417   0.30483   0.93353   0.00000  Uiso   1.00
H118   H     0.95104   0.45850   0.11522   0.00000  Uiso   1.00
H119   H     0.16914   0.62144   0.04068   0.00000  Uiso   1.00
H120   H     0.09171   0.13543   0.85447   0.00000  Uiso   1.00
H121   H     0.85317   0.45948   0.23758   0.00000  Uiso   1.00
H122   H     0.31308   0.80307   0.08040   0.00000  Uiso   1.00
H123   H     0.31539   0.50712   0.31579   0.00000  Uiso   1.00
H124   H     0.32489   0.35158   0.22715   0.00000  Uiso   1.00
H125   H     0.21175   0.50525   0.40884   0.00000  Uiso   1.00
H126   H     0.42986   0.66819   0.33430   0.00000  Uiso   1.00
H127   H     0.30331   0.17337   0.09278   0.00000  Uiso   1.00
H128   H     0.06477   0.49743   0.47590   0.00000  Uiso   1.00
H129   H     0.52469   0.84101   0.31871   0.00000  Uiso   1.00
O130   O     0.19928   0.05126   0.91030   0.00000  Uiso   1.00
O131   O     0.88633   0.47643   0.41294   0.00000  Uiso   1.00
O132   O     0.48973   0.92720   0.20671   0.00000  Uiso   1.00
N133   N     0.14022   0.16571   0.92271   0.00000  Uiso   1.00
N134   N     0.91719   0.46867   0.28090   0.00000  Uiso   1.00
N135   N     0.34717   0.78991   0.13396   0.00000  Uiso   1.00
N136   N     0.25408   0.18613   0.05094   0.00000  Uiso   1.00
N137   N     0.03106   0.48908   0.40913   0.00000  Uiso   1.00
N138   N     0.46103   0.81032   0.26219   0.00000  Uiso   1.00
C139   C     0.89856   0.87513   0.52691   0.00000  Uiso   1.00
C140   C     0.91640   0.84305   0.60664   0.00000  Uiso   1.00
C141   C     0.00271   0.87954   0.68505   0.00000  Uiso   1.00
C142   C     0.00436   0.84065   0.75005   0.00000  Uiso   1.00
C143   C     0.04448   0.80194   0.87586   0.00000  Uiso   1.00
C144   C     0.81785   0.90460   0.52314   0.00000  Uiso   1.00
C145   C     0.82130   0.99283   0.53134   0.00000  Uiso   1.00
C146   C     0.73997   0.00574   0.52604   0.00000  Uiso   1.00
C147   C     0.62706   0.06256   0.52216   0.00000  Uiso   1.00
C148   C     0.85826   0.78595   0.43450   0.00000  Uiso   1.00
C149   C     0.89567   0.77443   0.36814   0.00000  Uiso   1.00
C150   C     0.84835   0.68746   0.28820   0.00000  Uiso   1.00
C151   C     0.79819   0.56006   0.14667   0.00000  Uiso   1.00
C152   C     0.74799   0.74117   0.50290   0.00000  Uiso   1.00
C153   C     0.83461   0.77029   0.59360   0.00000  Uiso   1.00
C154   C     0.83612   0.73133   0.65849   0.00000  Uiso   1.00
C155   C     0.92242   0.76776   0.73699   0.00000  Uiso   1.00
C156   C     0.73606   0.83184   0.51011   0.00000  Uiso   1.00
C157   C     0.65471   0.84462   0.50479   0.00000  Uiso   1.00
C158   C     0.65803   0.93285   0.51298   0.00000  Uiso   1.00
C159   C     0.77647   0.71319   0.42146   0.00000  Uiso   1.00
C160   C     0.72908   0.62622   0.34159   0.00000  Uiso   1.00
C161   C     0.76641   0.61457   0.27513   0.00000  Uiso   1.00
H162   H     0.96223   0.93178   0.53706   0.00000  Uiso   1.00
H163   H     0.06599   0.93586   0.69512   0.00000  Uiso   1.00
H164   H     0.88460   0.04912   0.54142   0.00000  Uiso   1.00
H165   H     0.95896   0.83075   0.37826   0.00000  Uiso   1.00
H166   H     0.14494   0.90831   0.86463   0.00000  Uiso   1.00
H167   H     0.76246   0.14712   0.54052   0.00000  Uiso   1.00
H168   H     0.91926   0.68666   0.19645   0.00000  Uiso   1.00
H169   H     0.68431   0.68453   0.49275   0.00000  Uiso   1.00
H170   H     0.77282   0.67503   0.64838   0.00000  Uiso   1.00
H171   H     0.59143   0.78830   0.49469   0.00000  Uiso   1.00
H172   H     0.66579   0.56993   0.33152   0.00000  Uiso   1.00
H173   H     0.90700   0.69662   0.82670   0.00000  Uiso   1.00
H174   H     0.52451   0.93543   0.50259   0.00000  Uiso   1.00
H175   H     0.68132   0.47496   0.15852   0.00000  Uiso   1.00
O176   O     0.08920   0.80070   0.94886   0.00000  Uiso   1.00
O177   O     0.58739   0.11400   0.52363   0.00000  Uiso   1.00
O178   O     0.79312   0.50989   0.07222   0.00000  Uiso   1.00
N179   N     0.07680   0.85978   0.83433   0.00000  Uiso   1.00
N180   N     0.71920   0.08306   0.53133   0.00000  Uiso   1.00
N181   N     0.86579   0.65257   0.20964   0.00000  Uiso   1.00
N182   N     0.94876   0.74587   0.81392   0.00000  Uiso   1.00
N183   N     0.59117   0.96914   0.51092   0.00000  Uiso   1.00
N184   N     0.73775   0.53866   0.18923   0.00000  Uiso   1.00
C185   C     0.52714   0.89866   0.87514   0.00000  Uiso   1.00
C186   C     0.60674   0.91647   0.84301   0.00000  Uiso   1.00
C187   C     0.68503   0.00284   0.87952   0.00000  Uiso   1.00
C188   C     0.74992   0.00444   0.84057   0.00000  Uiso   1.00
C189   C     0.87551   0.04453   0.80178   0.00000  Uiso   1.00
C190   C     0.52338   0.81789   0.90461   0.00000  Uiso   1.00
C191   C     0.53158   0.82136   0.99292   0.00000  Uiso   1.00
C192   C     0.52628   0.73997   0.00582   0.00000  Uiso   1.00
C193   C     0.52239   0.62699   0.06265   0.00000  Uiso   1.00
C194   C     0.43487   0.85834   0.78592   0.00000  Uiso   1.00
C195   C     0.36863   0.89580   0.77442   0.00000  Uiso   1.00
C196   C     0.28880   0.84845   0.68739   0.00000  Uiso   1.00
C197   C     0.14749   0.79828   0.55994   0.00000  Uiso   1.00
C198   C     0.50314   0.74794   0.74104   0.00000  Uiso   1.00
C199   C     0.59369   0.83460   0.77017   0.00000  Uiso   1.00
C200   C     0.65848   0.83607   0.73115   0.00000  Uiso   1.00
C201   C     0.73686   0.92243   0.76760   0.00000  Uiso   1.00
C202   C     0.51034   0.73602   0.83178   0.00000  Uiso   1.00
C203   C     0.50502   0.65460   0.84455   0.00000  Uiso   1.00
C204   C     0.51321   0.65796   0.93285   0.00000  Uiso   1.00
C205   C     0.42183   0.77647   0.71307   0.00000  Uiso   1.00
C206   C     0.34208   0.72905   0.62605   0.00000  Uiso   1.00
C207   C     0.27573   0.76644   0.61443   0.00000  Uiso   1.00
H208   H     0.53729   0.96240   0.93185   0.00000  Uiso   1.00
H209   H     0.69511   0.06617   0.93589   0.00000  Uiso   1.00
H210   H     0.54166   0.88472   0.04927   0.00000  Uiso   1.00
H211   H     0.37874   0.95916   0.83080   0.00000  Uiso   1.00
H212   H     0.86434   0.14512   0.90827   0.00000  Uiso   1.00
H213   H     0.54076   0.76251   0.14732   0.00000  Uiso   1.00
H214   H     0.19721   0.91947   0.68665   0.00000  Uiso   1.00
H215   H     0.49298   0.68420   0.68433   0.00000  Uiso   1.00
H216   H     0.64837   0.77271   0.67478   0.00000  Uiso   1.00
H217   H     0.49492   0.59126   0.78816   0.00000  Uiso   1.00
H218   H     0.33201   0.66569   0.56970   0.00000  Uiso   1.00
H219   H     0.82640   0.90693   0.69635   0.00000  Uiso   1.00
H220   H     0.50282   0.52432   0.93540   0.00000  Uiso   1.00
H221   H     0.15928   0.68128   0.47473   0.00000  Uiso   1.00
O222   O     0.94840   0.08926   0.80052   0.00000  Uiso   1.00
O223   O     0.52386   0.58730   0.11413   0.00000  Uiso   1.00
O224   O     0.07315   0.79322   0.50975   0.00000  Uiso   1.00
N225   N     0.83407   0.07692   0.85969   0.00000  Uiso   1.00
N226   N     0.53156   0.71921   0.08319   0.00000  Uiso   1.00
N227   N     0.21037   0.86593   0.65252   0.00000  Uiso   1.00
N228   N     0.81366   0.94875   0.74566   0.00000  Uiso   1.00
N229   N     0.51115   0.59104   0.96916   0.00000  Uiso   1.00
N230   N     0.18996   0.73777   0.53848   0.00000  Uiso   1.00
C231   C     0.87513   0.52705   0.89879   0.00000  Uiso   1.00
C232   C     0.84306   0.60672   0.91665   0.00000  Uiso   1.00
C233   C     0.87954   0.68510   0.00309   0.00000  Uiso   1.00
C234   C     0.84066   0.75005   0.00474   0.00000  Uiso   1.00
C235   C     0.80197   0.87578   0.04491   0.00000  Uiso   1.00
C236   C     0.90454   0.52324   0.81794   0.00000  Uiso   1.00
C237   C     0.99270   0.53141   0.82138   0.00000  Uiso   1.00
C238   C     0.00556   0.52608   0.73991   0.00000  Uiso   1.00
C239   C     0.06229   0.52213   0.62681   0.00000  Uiso   1.00
C240   C     0.78604   0.43472   0.85844   0.00000  Uiso   1.00
C241   C     0.77456   0.36844   0.89593   0.00000  Uiso   1.00
C242   C     0.68766   0.28857   0.84855   0.00000  Uiso   1.00
C243   C     0.56039   0.14718   0.79835   0.00000  Uiso   1.00
C244   C     0.74123   0.50303   0.74799   0.00000  Uiso   1.00
C245   C     0.77034   0.59368   0.83474   0.00000  Uiso   1.00
C246   C     0.73139   0.65853   0.83625   0.00000  Uiso   1.00
C247   C     0.76780   0.73699   0.92268   0.00000  Uiso   1.00
C248   C     0.83182   0.51020   0.73603   0.00000  Uiso   1.00
C249   C     0.84455   0.50485   0.65453   0.00000  Uiso   1.00
C250   C     0.93270   0.51302   0.65785   0.00000  Uiso   1.00
C251   C     0.71330   0.42168   0.77653   0.00000  Uiso   1.00
C252   C     0.62641   0.34188   0.72908   0.00000  Uiso   1.00
C253   C     0.61480   0.27550   0.76649   0.00000  Uiso   1.00
H254   H     0.93176   0.53720   0.96256   0.00000  Uiso   1.00
H255   H     0.93583   0.69517   0.06647   0.00000  Uiso   1.00
H256   H     0.04896   0.54150   0.88478   0.00000  Uiso   1.00
H257   H     0.83086   0.37856   0.95932   0.00000  Uiso   1.00
H258   H     0.90829   0.86457   0.14553   0.00000  Uiso   1.00
H259   H     0.14683   0.54052   0.76242   0.00000  Uiso   1.00
H260   H     0.68692   0.19693   0.91960   0.00000  Uiso   1.00
H261   H     0.68461   0.49288   0.68421   0.00000  Uiso   1.00
H262   H     0.67511   0.64842   0.77285   0.00000  Uiso   1.00
H263   H     0.78825   0.49475   0.59116   0.00000  Uiso   1.00
H264   H     0.57014   0.33181   0.66570   0.00000  Uiso   1.00
H265   H     0.69669   0.82663   0.90722   0.00000  Uiso   1.00
H266   H     0.93523   0.50257   0.52410   0.00000  Uiso   1.00
H267   H     0.47531   0.15899   0.68129   0.00000  Uiso   1.00
O268   O     0.80072   0.94874   0.08970   0.00000  Uiso   1.00
O269   O     0.11368   0.52357   0.58706   0.00000  Uiso   1.00
O270   O     0.51027   0.07280   0.79329   0.00000  Uiso   1.00
N271   N     0.85978   0.83429   0.07729   0.00000  Uiso   1.00
N272   N     0.08281   0.53133   0.71910   0.00000  Uiso   1.00
N273   N     0.65283   0.21009   0.86604   0.00000  Uiso   1.00
N274   N     0.74592   0.81387   0.94905   0.00000  Uiso   1.00
N275   N     0.96894   0.51092   0.59087   0.00000  Uiso   1.00
N276   N     0.53897   0.18968   0.73781   0.00000  Uiso   1.00
