data_job_02888
_audit_creation_date              2018-12-19
_audit_creation_method            'Materials Studio'
_symmetry_space_group_name_H-M    'P1'
_symmetry_Int_Tables_number       1
_symmetry_cell_setting            triclinic
loop_
_symmetry_equiv_pos_as_xyz
  x,y,z
_cell_length_a                    12.8131
_cell_length_b                    20.4486
_cell_length_c                    11.0890
_cell_angle_alpha                 90.0000
_cell_angle_beta                  90.0000
_cell_angle_gamma                 90.0000
loop_
_atom_site_label
_atom_site_type_symbol
_atom_site_fract_x
_atom_site_fract_y
_atom_site_fract_z
_atom_site_U_iso_or_equiv
_atom_site_adp_type
_atom_site_occupancy
C1     C     0.82349   0.40171   0.79507   0.00000  Uiso   1.00
C2     C     0.74804   0.34919   0.83905   0.00000  Uiso   1.00
C3     C     0.74689   0.32174   0.95349   0.00000  Uiso   1.00
C4     C     0.67171   0.27440   0.97599   0.00000  Uiso   1.00
C5     C     0.56545   0.19575   0.05777   0.00000  Uiso   1.00
C6     C     0.87644   0.37357   0.68337   0.00000  Uiso   1.00
C7     C     0.98324   0.36663   0.66692   0.00000  Uiso   1.00
C8     C     0.01614   0.33982   0.55836   0.00000  Uiso   1.00
C9     C     0.10923   0.29907   0.39841   0.00000  Uiso   1.00
C10    C     0.75590   0.45817   0.75070   0.00000  Uiso   1.00
C11    C     0.76137   0.52236   0.79083   0.00000  Uiso   1.00
C12    C     0.69280   0.56677   0.73893   0.00000  Uiso   1.00
C13    C     0.59874   0.65737   0.68352   0.00000  Uiso   1.00
C14    C     0.69202   0.36643   0.63150   0.00000  Uiso   1.00
C15    C     0.67663   0.33003   0.75020   0.00000  Uiso   1.00
C16    C     0.60143   0.28272   0.77253   0.00000  Uiso   1.00
C17    C     0.60016   0.25520   0.88699   0.00000  Uiso   1.00
C18    C     0.80504   0.35442   0.59453   0.00000  Uiso   1.00
C19    C     0.83779   0.32761   0.48596   0.00000  Uiso   1.00
C20    C     0.94461   0.32062   0.46935   0.00000  Uiso   1.00
C21    C     0.68449   0.43901   0.66185   0.00000  Uiso   1.00
C22    C     0.61591   0.48333   0.60987   0.00000  Uiso   1.00
C23    C     0.62127   0.54758   0.64992   0.00000  Uiso   1.00
H24    H     0.87909   0.41662   0.86423   0.00000  Uiso   1.00
H25    H     0.80217   0.33658   0.02222   0.00000  Uiso   1.00
H26    H     0.03848   0.38147   0.73568   0.00000  Uiso   1.00
H27    H     0.81664   0.53717   0.85958   0.00000  Uiso   1.00
H28    H     0.68542   0.23937   0.15819   0.00000  Uiso   1.00
H29    H     0.18371   0.33405   0.55400   0.00000  Uiso   1.00
H30    H     0.71591   0.66238   0.81525   0.00000  Uiso   1.00
H31    H     0.63643   0.35152   0.56233   0.00000  Uiso   1.00
H32    H     0.54618   0.26790   0.70376   0.00000  Uiso   1.00
H33    H     0.78250   0.31279   0.41723   0.00000  Uiso   1.00
H34    H     0.56066   0.46849   0.54112   0.00000  Uiso   1.00
H35    H     0.47766   0.18363   0.89971   0.00000  Uiso   1.00
H36    H     0.97595   0.27831   0.29552   0.00000  Uiso   1.00
H37    H     0.50815   0.60663   0.55678   0.00000  Uiso   1.00
O38    O     0.52658   0.15766   0.12742   0.00000  Uiso   1.00
O39    O     0.18031   0.28188   0.33474   0.00000  Uiso   1.00
O40    O     0.56657   0.71263   0.67751   0.00000  Uiso   1.00
N41    N     0.64889   0.23774   0.07796   0.00000  Uiso   1.00
N42    N     0.11476   0.32624   0.51308   0.00000  Uiso   1.00
N43    N     0.67743   0.63321   0.75731   0.00000  Uiso   1.00
N44    N     0.53710   0.20774   0.93887   0.00000  Uiso   1.00
N45    N     0.00297   0.29625   0.37400   0.00000  Uiso   1.00
N46    N     0.56563   0.60321   0.61823   0.00000  Uiso   1.00
C47    C     0.17651   0.59829   0.29507   0.00000  Uiso   1.00
C48    C     0.25196   0.65081   0.33905   0.00000  Uiso   1.00
C49    C     0.25311   0.67826   0.45349   0.00000  Uiso   1.00
C50    C     0.32829   0.72560   0.47599   0.00000  Uiso   1.00
C51    C     0.43455   0.80425   0.55777   0.00000  Uiso   1.00
C52    C     0.12356   0.62643   0.18337   0.00000  Uiso   1.00
C53    C     0.01676   0.63337   0.16692   0.00000  Uiso   1.00
C54    C     0.98386   0.66018   0.05836   0.00000  Uiso   1.00
C55    C     0.89077   0.70093   0.89841   0.00000  Uiso   1.00
C56    C     0.24410   0.54183   0.25070   0.00000  Uiso   1.00
C57    C     0.23863   0.47764   0.29083   0.00000  Uiso   1.00
C58    C     0.30720   0.43323   0.23893   0.00000  Uiso   1.00
C59    C     0.40126   0.34263   0.18352   0.00000  Uiso   1.00
C60    C     0.30798   0.63357   0.13150   0.00000  Uiso   1.00
C61    C     0.32337   0.66997   0.25020   0.00000  Uiso   1.00
C62    C     0.39857   0.71728   0.27253   0.00000  Uiso   1.00
C63    C     0.39984   0.74480   0.38699   0.00000  Uiso   1.00
C64    C     0.19496   0.64558   0.09453   0.00000  Uiso   1.00
C65    C     0.16221   0.67239   0.98596   0.00000  Uiso   1.00
C66    C     0.05539   0.67938   0.96935   0.00000  Uiso   1.00
C67    C     0.31551   0.56099   0.16185   0.00000  Uiso   1.00
C68    C     0.38409   0.51667   0.10987   0.00000  Uiso   1.00
C69    C     0.37873   0.45242   0.14992   0.00000  Uiso   1.00
H70    H     0.12091   0.58338   0.36423   0.00000  Uiso   1.00
H71    H     0.19783   0.66342   0.52222   0.00000  Uiso   1.00
H72    H     0.96152   0.61853   0.23568   0.00000  Uiso   1.00
H73    H     0.18336   0.46283   0.35958   0.00000  Uiso   1.00
H74    H     0.31458   0.76063   0.65819   0.00000  Uiso   1.00
H75    H     0.81629   0.66595   0.05400   0.00000  Uiso   1.00
H76    H     0.28409   0.33762   0.31525   0.00000  Uiso   1.00
H77    H     0.36357   0.64848   0.06233   0.00000  Uiso   1.00
H78    H     0.45382   0.73210   0.20376   0.00000  Uiso   1.00
H79    H     0.21750   0.68721   0.91723   0.00000  Uiso   1.00
H80    H     0.43934   0.53151   0.04112   0.00000  Uiso   1.00
H81    H     0.52234   0.81637   0.39971   0.00000  Uiso   1.00
H82    H     0.02405   0.72169   0.79552   0.00000  Uiso   1.00
H83    H     0.49185   0.39337   0.05678   0.00000  Uiso   1.00
O84    O     0.47342   0.84234   0.62742   0.00000  Uiso   1.00
O85    O     0.81969   0.71812   0.83474   0.00000  Uiso   1.00
O86    O     0.43343   0.28737   0.17751   0.00000  Uiso   1.00
N87    N     0.35111   0.76226   0.57796   0.00000  Uiso   1.00
N88    N     0.88524   0.67376   0.01308   0.00000  Uiso   1.00
N89    N     0.32257   0.36679   0.25731   0.00000  Uiso   1.00
N90    N     0.46290   0.79226   0.43887   0.00000  Uiso   1.00
N91    N     0.99703   0.70375   0.87400   0.00000  Uiso   1.00
N92    N     0.43437   0.39679   0.11823   0.00000  Uiso   1.00
C93    C     0.32349   0.09829   0.79507   0.00000  Uiso   1.00
C94    C     0.24804   0.15081   0.83905   0.00000  Uiso   1.00
C95    C     0.24689   0.17826   0.95349   0.00000  Uiso   1.00
C96    C     0.17171   0.22560   0.97599   0.00000  Uiso   1.00
C97    C     0.06545   0.30425   0.05777   0.00000  Uiso   1.00
C98    C     0.37644   0.12643   0.68337   0.00000  Uiso   1.00
C99    C     0.48324   0.13337   0.66692   0.00000  Uiso   1.00
C100   C     0.51614   0.16018   0.55836   0.00000  Uiso   1.00
C101   C     0.60923   0.20093   0.39841   0.00000  Uiso   1.00
C102   C     0.25590   0.04183   0.75070   0.00000  Uiso   1.00
C103   C     0.26137   0.97764   0.79083   0.00000  Uiso   1.00
C104   C     0.19280   0.93323   0.73893   0.00000  Uiso   1.00
C105   C     0.09874   0.84263   0.68352   0.00000  Uiso   1.00
C106   C     0.19202   0.13357   0.63150   0.00000  Uiso   1.00
C107   C     0.17663   0.16997   0.75020   0.00000  Uiso   1.00
C108   C     0.10143   0.21728   0.77253   0.00000  Uiso   1.00
C109   C     0.10016   0.24480   0.88699   0.00000  Uiso   1.00
C110   C     0.30504   0.14558   0.59453   0.00000  Uiso   1.00
C111   C     0.33779   0.17239   0.48596   0.00000  Uiso   1.00
C112   C     0.44461   0.17938   0.46935   0.00000  Uiso   1.00
C113   C     0.18449   0.06099   0.66185   0.00000  Uiso   1.00
C114   C     0.11591   0.01667   0.60987   0.00000  Uiso   1.00
C115   C     0.12127   0.95242   0.64992   0.00000  Uiso   1.00
H116   H     0.37909   0.08338   0.86423   0.00000  Uiso   1.00
H117   H     0.30217   0.16342   0.02222   0.00000  Uiso   1.00
H118   H     0.53848   0.11853   0.73568   0.00000  Uiso   1.00
H119   H     0.31664   0.96283   0.85958   0.00000  Uiso   1.00
H120   H     0.18542   0.26063   0.15819   0.00000  Uiso   1.00
H121   H     0.68371   0.16595   0.55400   0.00000  Uiso   1.00
H122   H     0.21591   0.83762   0.81525   0.00000  Uiso   1.00
H123   H     0.13643   0.14848   0.56233   0.00000  Uiso   1.00
H124   H     0.04618   0.23210   0.70376   0.00000  Uiso   1.00
H125   H     0.28250   0.18721   0.41723   0.00000  Uiso   1.00
H126   H     0.06066   0.03151   0.54112   0.00000  Uiso   1.00
H127   H     0.97766   0.31637   0.89971   0.00000  Uiso   1.00
H128   H     0.47595   0.22169   0.29552   0.00000  Uiso   1.00
H129   H     0.00815   0.89337   0.55678   0.00000  Uiso   1.00
O130   O     0.02658   0.34234   0.12742   0.00000  Uiso   1.00
O131   O     0.68031   0.21812   0.33474   0.00000  Uiso   1.00
O132   O     0.06657   0.78737   0.67751   0.00000  Uiso   1.00
N133   N     0.14889   0.26226   0.07796   0.00000  Uiso   1.00
N134   N     0.61476   0.17376   0.51308   0.00000  Uiso   1.00
N135   N     0.17743   0.86679   0.75731   0.00000  Uiso   1.00
N136   N     0.03710   0.29226   0.93887   0.00000  Uiso   1.00
N137   N     0.50297   0.20375   0.37400   0.00000  Uiso   1.00
N138   N     0.06563   0.89679   0.61823   0.00000  Uiso   1.00
C139   C     0.67651   0.90171   0.29507   0.00000  Uiso   1.00
C140   C     0.75196   0.84919   0.33905   0.00000  Uiso   1.00
C141   C     0.75311   0.82174   0.45349   0.00000  Uiso   1.00
C142   C     0.82829   0.77440   0.47599   0.00000  Uiso   1.00
C143   C     0.93455   0.69575   0.55777   0.00000  Uiso   1.00
C144   C     0.62356   0.87357   0.18337   0.00000  Uiso   1.00
C145   C     0.51676   0.86663   0.16692   0.00000  Uiso   1.00
C146   C     0.48386   0.83982   0.05836   0.00000  Uiso   1.00
C147   C     0.39077   0.79907   0.89841   0.00000  Uiso   1.00
C148   C     0.74410   0.95817   0.25070   0.00000  Uiso   1.00
C149   C     0.73863   0.02236   0.29083   0.00000  Uiso   1.00
C150   C     0.80720   0.06677   0.23893   0.00000  Uiso   1.00
C151   C     0.90126   0.15737   0.18352   0.00000  Uiso   1.00
C152   C     0.80798   0.86643   0.13150   0.00000  Uiso   1.00
C153   C     0.82337   0.83003   0.25020   0.00000  Uiso   1.00
C154   C     0.89857   0.78272   0.27253   0.00000  Uiso   1.00
C155   C     0.89984   0.75520   0.38699   0.00000  Uiso   1.00
C156   C     0.69496   0.85442   0.09453   0.00000  Uiso   1.00
C157   C     0.66221   0.82761   0.98596   0.00000  Uiso   1.00
C158   C     0.55539   0.82062   0.96935   0.00000  Uiso   1.00
C159   C     0.81551   0.93901   0.16185   0.00000  Uiso   1.00
C160   C     0.88409   0.98333   0.10987   0.00000  Uiso   1.00
C161   C     0.87873   0.04758   0.14992   0.00000  Uiso   1.00
H162   H     0.62091   0.91662   0.36423   0.00000  Uiso   1.00
H163   H     0.69783   0.83658   0.52222   0.00000  Uiso   1.00
H164   H     0.46152   0.88147   0.23568   0.00000  Uiso   1.00
H165   H     0.68336   0.03717   0.35958   0.00000  Uiso   1.00
H166   H     0.81458   0.73937   0.65819   0.00000  Uiso   1.00
H167   H     0.31629   0.83405   0.05400   0.00000  Uiso   1.00
H168   H     0.78409   0.16238   0.31525   0.00000  Uiso   1.00
H169   H     0.86357   0.85152   0.06233   0.00000  Uiso   1.00
H170   H     0.95382   0.76790   0.20376   0.00000  Uiso   1.00
H171   H     0.71750   0.81279   0.91723   0.00000  Uiso   1.00
H172   H     0.93934   0.96849   0.04112   0.00000  Uiso   1.00
H173   H     0.02234   0.68363   0.39971   0.00000  Uiso   1.00
H174   H     0.52405   0.77831   0.79552   0.00000  Uiso   1.00
H175   H     0.99185   0.10663   0.05678   0.00000  Uiso   1.00
O176   O     0.97342   0.65766   0.62742   0.00000  Uiso   1.00
O177   O     0.31969   0.78188   0.83474   0.00000  Uiso   1.00
O178   O     0.93343   0.21263   0.17751   0.00000  Uiso   1.00
N179   N     0.85111   0.73774   0.57796   0.00000  Uiso   1.00
N180   N     0.38524   0.82624   0.01308   0.00000  Uiso   1.00
N181   N     0.82257   0.13321   0.25731   0.00000  Uiso   1.00
N182   N     0.96290   0.70774   0.43887   0.00000  Uiso   1.00
N183   N     0.49703   0.79625   0.87400   0.00000  Uiso   1.00
N184   N     0.93437   0.10321   0.11823   0.00000  Uiso   1.00
