data_job_03577
_audit_creation_date              2018-12-19
_audit_creation_method            'Materials Studio'
_symmetry_space_group_name_H-M    'P1'
_symmetry_Int_Tables_number       1
_symmetry_cell_setting            triclinic
loop_
_symmetry_equiv_pos_as_xyz
  x,y,z
_cell_length_a                    22.9454
_cell_length_b                    12.0770
_cell_length_c                    23.4522
_cell_angle_alpha                 90.0000
_cell_angle_beta                  35.3935
_cell_angle_gamma                 90.0000
loop_
_atom_site_label
_atom_site_type_symbol
_atom_site_fract_x
_atom_site_fract_y
_atom_site_fract_z
_atom_site_U_iso_or_equiv
_atom_site_adp_type
_atom_site_occupancy
C1     C     0.36711   0.00053   0.40364   0.00000  Uiso   1.00
C2     C     0.39314   0.10104   0.41936   0.00000  Uiso   1.00
C3     C     0.32819   0.15493   0.50827   0.00000  Uiso   1.00
C4     C     0.36638   0.24530   0.50732   0.00000  Uiso   1.00
C5     C     0.39164   0.39605   0.54493   0.00000  Uiso   1.00
C6     C     0.39027   0.03349   0.32378   0.00000  Uiso   1.00
C7     C     0.32290   0.03058   0.33232   0.00000  Uiso   1.00
C8     C     0.35869   0.06407   0.25090   0.00000  Uiso   1.00
C9     C     0.37951   0.10988   0.14010   0.00000  Uiso   1.00
C10    C     0.44355   0.91137   0.35826   0.00000  Uiso   1.00
C11    C     0.42099   0.80576   0.39577   0.00000  Uiso   1.00
C12    C     0.50163   0.73643   0.34336   0.00000  Uiso   1.00
C13    C     0.60518   0.59263   0.28609   0.00000  Uiso   1.00
C14    C     0.55046   0.06517   0.24384   0.00000  Uiso   1.00
C15    C     0.49273   0.13615   0.33257   0.00000  Uiso   1.00
C16    C     0.53104   0.22645   0.33148   0.00000  Uiso   1.00
C17    C     0.46614   0.28047   0.42037   0.00000  Uiso   1.00
C18    C     0.48986   0.06860   0.23699   0.00000  Uiso   1.00
C19    C     0.52575   0.10210   0.15553   0.00000  Uiso   1.00
C20    C     0.45845   0.09924   0.16395   0.00000  Uiso   1.00
C21    C     0.54314   0.94648   0.27146   0.00000  Uiso   1.00
C22    C     0.62384   0.87729   0.21898   0.00000  Uiso   1.00
C23    C     0.60139   0.77160   0.25641   0.00000  Uiso   1.00
H24    H     0.28958   0.97320   0.47120   0.00000  Uiso   1.00
H25    H     0.25112   0.12774   0.57542   0.00000  Uiso   1.00
H26    H     0.24584   0.00339   0.39950   0.00000  Uiso   1.00
H27    H     0.34391   0.77862   0.46294   0.00000  Uiso   1.00
H28    H     0.25239   0.31459   0.65268   0.00000  Uiso   1.00
H29    H     0.24127   0.05236   0.28172   0.00000  Uiso   1.00
H30    H     0.44807   0.57838   0.41550   0.00000  Uiso   1.00
H31    H     0.62799   0.09251   0.17627   0.00000  Uiso   1.00
H32    H     0.60810   0.25360   0.26430   0.00000  Uiso   1.00
H33    H     0.60282   0.12926   0.08838   0.00000  Uiso   1.00
H34    H     0.70089   0.90449   0.15182   0.00000  Uiso   1.00
H35    H     0.54213   0.41675   0.40017   0.00000  Uiso   1.00
H36    H     0.53101   0.15452   0.02921   0.00000  Uiso   1.00
H37    H     0.73780   0.68054   0.16299   0.00000  Uiso   1.00
O38    O     0.37806   0.46951   0.58966   0.00000  Uiso   1.00
O39    O     0.36348   0.12546   0.10297   0.00000  Uiso   1.00
O40    O     0.63479   0.50362   0.27848   0.00000  Uiso   1.00
N41    N     0.32331   0.31651   0.58118   0.00000  Uiso   1.00
N42    N     0.31291   0.07136   0.23436   0.00000  Uiso   1.00
N43    N     0.50625   0.62822   0.35941   0.00000  Uiso   1.00
N44    N     0.47922   0.37148   0.44530   0.00000  Uiso   1.00
N45    N     0.46882   0.12633   0.09848   0.00000  Uiso   1.00
N46    N     0.66216   0.68319   0.22354   0.00000  Uiso   1.00
C47    C     0.86711   0.50053   0.40364   0.00000  Uiso   1.00
C48    C     0.89314   0.60104   0.41936   0.00000  Uiso   1.00
C49    C     0.82819   0.65493   0.50827   0.00000  Uiso   1.00
C50    C     0.86638   0.74530   0.50732   0.00000  Uiso   1.00
C51    C     0.89164   0.89605   0.54493   0.00000  Uiso   1.00
C52    C     0.89027   0.53349   0.32378   0.00000  Uiso   1.00
C53    C     0.82290   0.53058   0.33232   0.00000  Uiso   1.00
C54    C     0.85869   0.56407   0.25090   0.00000  Uiso   1.00
C55    C     0.87951   0.60988   0.14010   0.00000  Uiso   1.00
C56    C     0.94355   0.41137   0.35826   0.00000  Uiso   1.00
C57    C     0.92099   0.30576   0.39577   0.00000  Uiso   1.00
C58    C     0.00163   0.23643   0.34336   0.00000  Uiso   1.00
C59    C     0.10518   0.09263   0.28609   0.00000  Uiso   1.00
C60    C     0.05046   0.56517   0.24384   0.00000  Uiso   1.00
C61    C     0.99273   0.63615   0.33257   0.00000  Uiso   1.00
C62    C     0.03104   0.72645   0.33148   0.00000  Uiso   1.00
C63    C     0.96614   0.78047   0.42037   0.00000  Uiso   1.00
C64    C     0.98986   0.56860   0.23699   0.00000  Uiso   1.00
C65    C     0.02575   0.60210   0.15553   0.00000  Uiso   1.00
C66    C     0.95845   0.59924   0.16395   0.00000  Uiso   1.00
C67    C     0.04314   0.44648   0.27146   0.00000  Uiso   1.00
C68    C     0.12384   0.37729   0.21898   0.00000  Uiso   1.00
C69    C     0.10139   0.27160   0.25641   0.00000  Uiso   1.00
H70    H     0.78958   0.47320   0.47120   0.00000  Uiso   1.00
H71    H     0.75112   0.62774   0.57542   0.00000  Uiso   1.00
H72    H     0.74584   0.50339   0.39950   0.00000  Uiso   1.00
H73    H     0.84391   0.27862   0.46294   0.00000  Uiso   1.00
H74    H     0.75239   0.81459   0.65268   0.00000  Uiso   1.00
H75    H     0.74127   0.55236   0.28172   0.00000  Uiso   1.00
H76    H     0.94807   0.07838   0.41550   0.00000  Uiso   1.00
H77    H     0.12799   0.59251   0.17627   0.00000  Uiso   1.00
H78    H     0.10810   0.75360   0.26430   0.00000  Uiso   1.00
H79    H     0.10282   0.62926   0.08838   0.00000  Uiso   1.00
H80    H     0.20089   0.40449   0.15182   0.00000  Uiso   1.00
H81    H     0.04213   0.91675   0.40017   0.00000  Uiso   1.00
H82    H     0.03101   0.65452   0.02921   0.00000  Uiso   1.00
H83    H     0.23780   0.18054   0.16299   0.00000  Uiso   1.00
O84    O     0.87806   0.96951   0.58966   0.00000  Uiso   1.00
O85    O     0.86348   0.62546   0.10297   0.00000  Uiso   1.00
O86    O     0.13479   0.00362   0.27848   0.00000  Uiso   1.00
N87    N     0.82331   0.81651   0.58118   0.00000  Uiso   1.00
N88    N     0.81291   0.57136   0.23436   0.00000  Uiso   1.00
N89    N     0.00625   0.12822   0.35941   0.00000  Uiso   1.00
N90    N     0.97922   0.87148   0.44530   0.00000  Uiso   1.00
N91    N     0.96882   0.62633   0.09848   0.00000  Uiso   1.00
N92    N     0.16216   0.18319   0.22354   0.00000  Uiso   1.00
C93    C     0.63289   0.00053   0.59636   0.00000  Uiso   1.00
C94    C     0.60686   0.10104   0.58064   0.00000  Uiso   1.00
C95    C     0.67181   0.15493   0.49173   0.00000  Uiso   1.00
C96    C     0.63362   0.24530   0.49268   0.00000  Uiso   1.00
C97    C     0.60836   0.39605   0.45507   0.00000  Uiso   1.00
C98    C     0.60973   0.03349   0.67622   0.00000  Uiso   1.00
C99    C     0.67710   0.03058   0.66768   0.00000  Uiso   1.00
C100   C     0.64131   0.06407   0.74910   0.00000  Uiso   1.00
C101   C     0.62049   0.10988   0.85990   0.00000  Uiso   1.00
C102   C     0.55645   0.91137   0.64174   0.00000  Uiso   1.00
C103   C     0.57901   0.80576   0.60423   0.00000  Uiso   1.00
C104   C     0.49837   0.73643   0.65664   0.00000  Uiso   1.00
C105   C     0.39482   0.59263   0.71391   0.00000  Uiso   1.00
C106   C     0.44954   0.06517   0.75616   0.00000  Uiso   1.00
C107   C     0.50727   0.13615   0.66743   0.00000  Uiso   1.00
C108   C     0.46896   0.22645   0.66852   0.00000  Uiso   1.00
C109   C     0.53386   0.28047   0.57963   0.00000  Uiso   1.00
C110   C     0.51014   0.06860   0.76301   0.00000  Uiso   1.00
C111   C     0.47425   0.10210   0.84447   0.00000  Uiso   1.00
C112   C     0.54155   0.09924   0.83605   0.00000  Uiso   1.00
C113   C     0.45686   0.94648   0.72854   0.00000  Uiso   1.00
C114   C     0.37616   0.87729   0.78102   0.00000  Uiso   1.00
C115   C     0.39861   0.77160   0.74359   0.00000  Uiso   1.00
H116   H     0.71042   0.97320   0.52880   0.00000  Uiso   1.00
H117   H     0.74888   0.12774   0.42458   0.00000  Uiso   1.00
H118   H     0.75416   0.00339   0.60050   0.00000  Uiso   1.00
H119   H     0.65609   0.77862   0.53706   0.00000  Uiso   1.00
H120   H     0.74761   0.31459   0.34732   0.00000  Uiso   1.00
H121   H     0.75873   0.05236   0.71828   0.00000  Uiso   1.00
H122   H     0.55193   0.57838   0.58450   0.00000  Uiso   1.00
H123   H     0.37201   0.09251   0.82373   0.00000  Uiso   1.00
H124   H     0.39190   0.25360   0.73570   0.00000  Uiso   1.00
H125   H     0.39718   0.12926   0.91162   0.00000  Uiso   1.00
H126   H     0.29911   0.90449   0.84818   0.00000  Uiso   1.00
H127   H     0.45787   0.41675   0.59983   0.00000  Uiso   1.00
H128   H     0.46899   0.15452   0.97079   0.00000  Uiso   1.00
H129   H     0.26220   0.68054   0.83701   0.00000  Uiso   1.00
O130   O     0.62194   0.46951   0.41034   0.00000  Uiso   1.00
O131   O     0.63652   0.12546   0.89703   0.00000  Uiso   1.00
O132   O     0.36521   0.50362   0.72152   0.00000  Uiso   1.00
N133   N     0.67669   0.31651   0.41882   0.00000  Uiso   1.00
N134   N     0.68709   0.07136   0.76564   0.00000  Uiso   1.00
N135   N     0.49375   0.62822   0.64059   0.00000  Uiso   1.00
N136   N     0.52078   0.37148   0.55470   0.00000  Uiso   1.00
N137   N     0.53118   0.12633   0.90152   0.00000  Uiso   1.00
N138   N     0.33784   0.68319   0.77646   0.00000  Uiso   1.00
C139   C     0.13289   0.50053   0.59636   0.00000  Uiso   1.00
C140   C     0.10686   0.60104   0.58064   0.00000  Uiso   1.00
C141   C     0.17181   0.65493   0.49173   0.00000  Uiso   1.00
C142   C     0.13362   0.74530   0.49268   0.00000  Uiso   1.00
C143   C     0.10836   0.89605   0.45507   0.00000  Uiso   1.00
C144   C     0.10973   0.53349   0.67622   0.00000  Uiso   1.00
C145   C     0.17710   0.53058   0.66768   0.00000  Uiso   1.00
C146   C     0.14131   0.56407   0.74910   0.00000  Uiso   1.00
C147   C     0.12049   0.60988   0.85990   0.00000  Uiso   1.00
C148   C     0.05645   0.41137   0.64174   0.00000  Uiso   1.00
C149   C     0.07901   0.30576   0.60423   0.00000  Uiso   1.00
C150   C     0.99837   0.23643   0.65664   0.00000  Uiso   1.00
C151   C     0.89482   0.09263   0.71391   0.00000  Uiso   1.00
C152   C     0.94954   0.56517   0.75616   0.00000  Uiso   1.00
C153   C     0.00727   0.63615   0.66743   0.00000  Uiso   1.00
C154   C     0.96896   0.72645   0.66852   0.00000  Uiso   1.00
C155   C     0.03386   0.78047   0.57963   0.00000  Uiso   1.00
C156   C     0.01014   0.56860   0.76301   0.00000  Uiso   1.00
C157   C     0.97425   0.60210   0.84447   0.00000  Uiso   1.00
C158   C     0.04155   0.59924   0.83605   0.00000  Uiso   1.00
C159   C     0.95686   0.44648   0.72854   0.00000  Uiso   1.00
C160   C     0.87616   0.37729   0.78102   0.00000  Uiso   1.00
C161   C     0.89861   0.27160   0.74359   0.00000  Uiso   1.00
H162   H     0.21042   0.47320   0.52880   0.00000  Uiso   1.00
H163   H     0.24888   0.62774   0.42458   0.00000  Uiso   1.00
H164   H     0.25416   0.50339   0.60050   0.00000  Uiso   1.00
H165   H     0.15609   0.27862   0.53706   0.00000  Uiso   1.00
H166   H     0.24761   0.81459   0.34732   0.00000  Uiso   1.00
H167   H     0.25873   0.55236   0.71828   0.00000  Uiso   1.00
H168   H     0.05193   0.07838   0.58450   0.00000  Uiso   1.00
H169   H     0.87201   0.59251   0.82373   0.00000  Uiso   1.00
H170   H     0.89190   0.75360   0.73570   0.00000  Uiso   1.00
H171   H     0.89718   0.62926   0.91162   0.00000  Uiso   1.00
H172   H     0.79911   0.40449   0.84818   0.00000  Uiso   1.00
H173   H     0.95787   0.91675   0.59983   0.00000  Uiso   1.00
H174   H     0.96899   0.65452   0.97079   0.00000  Uiso   1.00
H175   H     0.76220   0.18054   0.83701   0.00000  Uiso   1.00
O176   O     0.12194   0.96951   0.41034   0.00000  Uiso   1.00
O177   O     0.13652   0.62546   0.89703   0.00000  Uiso   1.00
O178   O     0.86521   0.00362   0.72152   0.00000  Uiso   1.00
N179   N     0.17669   0.81651   0.41882   0.00000  Uiso   1.00
N180   N     0.18709   0.57136   0.76564   0.00000  Uiso   1.00
N181   N     0.99375   0.12822   0.64059   0.00000  Uiso   1.00
N182   N     0.02078   0.87148   0.55470   0.00000  Uiso   1.00
N183   N     0.03118   0.62633   0.90152   0.00000  Uiso   1.00
N184   N     0.83784   0.18319   0.77646   0.00000  Uiso   1.00
