data_job_06247
_audit_creation_date              2018-12-19
_audit_creation_method            'Materials Studio'
_symmetry_space_group_name_H-M    'P1'
_symmetry_Int_Tables_number       1
_symmetry_cell_setting            triclinic
loop_
_symmetry_equiv_pos_as_xyz
  x,y,z
_cell_length_a                    18.1493
_cell_length_b                    17.8806
_cell_length_c                    17.4472
_cell_angle_alpha                 98.4880
_cell_angle_beta                  98.5251
_cell_angle_gamma                 98.1277
loop_
_atom_site_label
_atom_site_type_symbol
_atom_site_fract_x
_atom_site_fract_y
_atom_site_fract_z
_atom_site_U_iso_or_equiv
_atom_site_adp_type
_atom_site_occupancy
C1     C     0.73966   0.58690   0.87848   0.00000  Uiso   1.00
C2     C     0.66513   0.59911   0.90475   0.00000  Uiso   1.00
C3     C     0.64672   0.66920   0.93426   0.00000  Uiso   1.00
C4     C     0.57568   0.66826   0.95500   0.00000  Uiso   1.00
C5     C     0.46769   0.69765   0.99713   0.00000  Uiso   1.00
C6     C     0.77075   0.53004   0.92643   0.00000  Uiso   1.00
C7     C     0.84115   0.54205   0.97414   0.00000  Uiso   1.00
C8     C     0.85903   0.48297   0.01313   0.00000  Uiso   1.00
C9     C     0.91504   0.40510   0.08886   0.00000  Uiso   1.00
C10    C     0.71908   0.54501   0.79355   0.00000  Uiso   1.00
C11    C     0.74605   0.56959   0.72955   0.00000  Uiso   1.00
C12    C     0.72043   0.52309   0.65666   0.00000  Uiso   1.00
C13    C     0.69621   0.46846   0.52608   0.00000  Uiso   1.00
C14    C     0.64623   0.46061   0.86286   0.00000  Uiso   1.00
C15    C     0.61438   0.53051   0.89627   0.00000  Uiso   1.00
C16    C     0.54335   0.52947   0.91698   0.00000  Uiso   1.00
C17    C     0.52484   0.59954   0.94650   0.00000  Uiso   1.00
C18    C     0.72001   0.46145   0.91795   0.00000  Uiso   1.00
C19    C     0.73779   0.40232   0.95686   0.00000  Uiso   1.00
C20    C     0.80820   0.41424   0.00463   0.00000  Uiso   1.00
C21    C     0.66833   0.47641   0.78507   0.00000  Uiso   1.00
C22    C     0.64267   0.42986   0.71227   0.00000  Uiso   1.00
C23    C     0.66960   0.45437   0.64816   0.00000  Uiso   1.00
H24    H     0.77917   0.64031   0.88508   0.00000  Uiso   1.00
H25    H     0.68601   0.72227   0.94082   0.00000  Uiso   1.00
H26    H     0.88041   0.59514   0.98069   0.00000  Uiso   1.00
H27    H     0.78532   0.62268   0.73613   0.00000  Uiso   1.00
H28    H     0.56036   0.78289   0.99890   0.00000  Uiso   1.00
H29    H     0.97028   0.51482   0.08295   0.00000  Uiso   1.00
H30    H     0.76975   0.57288   0.56725   0.00000  Uiso   1.00
H31    H     0.60672   0.40720   0.85625   0.00000  Uiso   1.00
H32    H     0.50409   0.47637   0.91040   0.00000  Uiso   1.00
H33    H     0.69850   0.34925   0.95028   0.00000  Uiso   1.00
H34    H     0.60340   0.37678   0.70572   0.00000  Uiso   1.00
H35    H     0.41271   0.58331   0.97422   0.00000  Uiso   1.00
H36    H     0.82264   0.31524   0.05827   0.00000  Uiso   1.00
H37    H     0.62210   0.37330   0.54257   0.00000  Uiso   1.00
O38    O     0.42214   0.73280   0.02273   0.00000  Uiso   1.00
O39    O     0.95995   0.38111   0.13298   0.00000  Uiso   1.00
O40    O     0.69686   0.45728   0.45640   0.00000  Uiso   1.00
N41    N     0.53968   0.72642   0.98564   0.00000  Uiso   1.00
N42    N     0.92294   0.47580   0.06424   0.00000  Uiso   1.00
N43    N     0.73547   0.53008   0.58210   0.00000  Uiso   1.00
N44    N     0.46024   0.61903   0.97236   0.00000  Uiso   1.00
N45    N     0.84349   0.36841   0.05095   0.00000  Uiso   1.00
N46    N     0.65602   0.42268   0.56882   0.00000  Uiso   1.00
C47    C     0.87674   0.74084   0.58872   0.00000  Uiso   1.00
C48    C     0.90224   0.66515   0.60102   0.00000  Uiso   1.00
C49    C     0.93067   0.64658   0.67284   0.00000  Uiso   1.00
C50    C     0.95083   0.57441   0.67167   0.00000  Uiso   1.00
C51    C     0.99168   0.46475   0.70148   0.00000  Uiso   1.00
C52    C     0.92270   0.77209   0.53053   0.00000  Uiso   1.00
C53    C     0.96832   0.84343   0.54307   0.00000  Uiso   1.00
C54    C     0.00571   0.86128   0.48256   0.00000  Uiso   1.00
C55    C     0.07828   0.91767   0.40291   0.00000  Uiso   1.00
C56    C     0.79519   0.72010   0.54568   0.00000  Uiso   1.00
C57    C     0.73360   0.74774   0.57094   0.00000  Uiso   1.00
C58    C     0.66363   0.72183   0.52316   0.00000  Uiso   1.00
C59    C     0.53822   0.69750   0.46704   0.00000  Uiso   1.00
C60    C     0.86200   0.64569   0.45894   0.00000  Uiso   1.00
C61    C     0.89423   0.61347   0.53053   0.00000  Uiso   1.00
C62    C     0.91436   0.54131   0.52925   0.00000  Uiso   1.00
C63    C     0.94281   0.52263   0.60105   0.00000  Uiso   1.00
C64    C     0.91469   0.72041   0.46004   0.00000  Uiso   1.00
C65    C     0.95202   0.73816   0.39949   0.00000  Uiso   1.00
C66    C     0.99769   0.80951   0.41194   0.00000  Uiso   1.00
C67    C     0.78718   0.66841   0.47519   0.00000  Uiso   1.00
C68    C     0.71730   0.64246   0.42736   0.00000  Uiso   1.00
C69    C     0.65561   0.67006   0.45255   0.00000  Uiso   1.00
H70    H     0.88298   0.78108   0.64360   0.00000  Uiso   1.00
H71    H     0.93686   0.68660   0.72738   0.00000  Uiso   1.00
H72    H     0.97450   0.88342   0.59763   0.00000  Uiso   1.00
H73    H     0.73982   0.78773   0.62549   0.00000  Uiso   1.00
H74    H     0.99310   0.55906   0.78917   0.00000  Uiso   1.00
H75    H     0.07245   0.97407   0.51558   0.00000  Uiso   1.00
H76    H     0.57757   0.77232   0.57433   0.00000  Uiso   1.00
H77    H     0.85577   0.60546   0.40406   0.00000  Uiso   1.00
H78    H     0.90816   0.50133   0.47469   0.00000  Uiso   1.00
H79    H     0.94580   0.69815   0.34495   0.00000  Uiso   1.00
H80    H     0.71112   0.60247   0.37281   0.00000  Uiso   1.00
H81    H     0.96980   0.40869   0.58408   0.00000  Uiso   1.00
H82    H     0.04916   0.82371   0.31049   0.00000  Uiso   1.00
H83    H     0.55428   0.62195   0.36925   0.00000  Uiso   1.00
O84    O     0.01643   0.41855   0.73740   0.00000  Uiso   1.00
O85    O     0.12052   0.96304   0.37846   0.00000  Uiso   1.00
O86    O     0.47126   0.69834   0.45556   0.00000  Uiso   1.00
N87    N     0.98041   0.53795   0.73121   0.00000  Uiso   1.00
N88    N     0.05461   0.92596   0.47542   0.00000  Uiso   1.00
N89    N     0.59194   0.73735   0.53035   0.00000  Uiso   1.00
N90    N     0.96787   0.45704   0.62085   0.00000  Uiso   1.00
N91    N     0.04208   0.84505   0.36507   0.00000  Uiso   1.00
N92    N     0.57941   0.65644   0.41999   0.00000  Uiso   1.00
C93    C     0.58603   0.87724   0.74281   0.00000  Uiso   1.00
C94    C     0.59775   0.90285   0.66528   0.00000  Uiso   1.00
C95    C     0.66665   0.93143   0.64635   0.00000  Uiso   1.00
C96    C     0.66544   0.95169   0.57242   0.00000  Uiso   1.00
C97    C     0.69393   0.99273   0.46012   0.00000  Uiso   1.00
C98    C     0.52997   0.92416   0.77497   0.00000  Uiso   1.00
C99    C     0.54189   0.97064   0.84826   0.00000  Uiso   1.00
C100   C     0.48363   0.00882   0.86666   0.00000  Uiso   1.00
C101   C     0.40687   0.08289   0.92466   0.00000  Uiso   1.00
C102   C     0.54493   0.79454   0.72128   0.00000  Uiso   1.00
C103   C     0.56941   0.73203   0.74945   0.00000  Uiso   1.00
C104   C     0.52372   0.66108   0.72266   0.00000  Uiso   1.00
C105   C     0.47019   0.53390   0.69731   0.00000  Uiso   1.00
C106   C     0.46134   0.86240   0.64517   0.00000  Uiso   1.00
C107   C     0.53002   0.89480   0.61225   0.00000  Uiso   1.00
C108   C     0.52870   0.91502   0.53832   0.00000  Uiso   1.00
C109   C     0.59760   0.94362   0.51928   0.00000  Uiso   1.00
C110   C     0.46225   0.91610   0.72193   0.00000  Uiso   1.00
C111   C     0.40394   0.95422   0.74023   0.00000  Uiso   1.00
C112   C     0.41578   0.00075   0.81353   0.00000  Uiso   1.00
C113   C     0.47720   0.78648   0.66824   0.00000  Uiso   1.00
C114   C     0.43146   0.71562   0.64141   0.00000  Uiso   1.00
C115   C     0.45587   0.65301   0.66953   0.00000  Uiso   1.00
H116   H     0.63875   0.88351   0.78411   0.00000  Uiso   1.00
H117   H     0.71905   0.93767   0.68742   0.00000  Uiso   1.00
H118   H     0.59431   0.97686   0.88929   0.00000  Uiso   1.00
H119   H     0.62182   0.73829   0.79049   0.00000  Uiso   1.00
H120   H     0.77821   0.99418   0.55684   0.00000  Uiso   1.00
H121   H     0.51517   0.07679   0.98252   0.00000  Uiso   1.00
H122   H     0.57319   0.57372   0.77418   0.00000  Uiso   1.00
H123   H     0.40861   0.85613   0.60388   0.00000  Uiso   1.00
H124   H     0.47628   0.90878   0.49729   0.00000  Uiso   1.00
H125   H     0.35154   0.94797   0.69917   0.00000  Uiso   1.00
H126   H     0.37906   0.70940   0.60037   0.00000  Uiso   1.00
H127   H     0.58117   0.97073   0.40253   0.00000  Uiso   1.00
H128   H     0.31813   0.05335   0.82821   0.00000  Uiso   1.00
H129   H     0.37615   0.55028   0.61986   0.00000  Uiso   1.00
O130   O     0.72835   0.01761   0.41283   0.00000  Uiso   1.00
O131   O     0.38325   0.12598   0.97131   0.00000  Uiso   1.00
O132   O     0.45937   0.46597   0.69797   0.00000  Uiso   1.00
N133   N     0.72255   0.98142   0.53514   0.00000  Uiso   1.00
N134   N     0.47663   0.05867   0.93312   0.00000  Uiso   1.00
N135   N     0.53086   0.58835   0.73836   0.00000  Uiso   1.00
N136   N     0.61653   0.96880   0.45211   0.00000  Uiso   1.00
N137   N     0.37060   0.04605   0.85009   0.00000  Uiso   1.00
N138   N     0.42484   0.57573   0.65532   0.00000  Uiso   1.00
C139   C     0.26034   0.41310   0.12152   0.00000  Uiso   1.00
C140   C     0.33487   0.40089   0.09525   0.00000  Uiso   1.00
C141   C     0.35328   0.33080   0.06574   0.00000  Uiso   1.00
C142   C     0.42432   0.33174   0.04500   0.00000  Uiso   1.00
C143   C     0.53231   0.30235   0.00287   0.00000  Uiso   1.00
C144   C     0.22925   0.46996   0.07357   0.00000  Uiso   1.00
C145   C     0.15885   0.45795   0.02586   0.00000  Uiso   1.00
C146   C     0.14097   0.51703   0.98687   0.00000  Uiso   1.00
C147   C     0.08496   0.59490   0.91114   0.00000  Uiso   1.00
C148   C     0.28092   0.45499   0.20645   0.00000  Uiso   1.00
C149   C     0.25395   0.43041   0.27045   0.00000  Uiso   1.00
C150   C     0.27957   0.47691   0.34334   0.00000  Uiso   1.00
C151   C     0.30379   0.53154   0.47392   0.00000  Uiso   1.00
C152   C     0.35377   0.53939   0.13714   0.00000  Uiso   1.00
C153   C     0.38562   0.46949   0.10373   0.00000  Uiso   1.00
C154   C     0.45665   0.47053   0.08302   0.00000  Uiso   1.00
C155   C     0.47516   0.40046   0.05350   0.00000  Uiso   1.00
C156   C     0.27999   0.53855   0.08206   0.00000  Uiso   1.00
C157   C     0.26221   0.59768   0.04314   0.00000  Uiso   1.00
C158   C     0.19180   0.58576   0.99537   0.00000  Uiso   1.00
C159   C     0.33167   0.52359   0.21493   0.00000  Uiso   1.00
C160   C     0.35733   0.57014   0.28773   0.00000  Uiso   1.00
C161   C     0.33040   0.54563   0.35184   0.00000  Uiso   1.00
H162   H     0.22083   0.35969   0.11492   0.00000  Uiso   1.00
H163   H     0.31399   0.27773   0.05918   0.00000  Uiso   1.00
H164   H     0.11959   0.40486   0.01931   0.00000  Uiso   1.00
H165   H     0.21468   0.37732   0.26387   0.00000  Uiso   1.00
H166   H     0.43964   0.21711   0.00110   0.00000  Uiso   1.00
H167   H     0.02972   0.48518   0.91705   0.00000  Uiso   1.00
H168   H     0.23025   0.42712   0.43275   0.00000  Uiso   1.00
H169   H     0.39328   0.59280   0.14375   0.00000  Uiso   1.00
H170   H     0.49591   0.52363   0.08960   0.00000  Uiso   1.00
H171   H     0.30150   0.65075   0.04972   0.00000  Uiso   1.00
H172   H     0.39660   0.62322   0.29428   0.00000  Uiso   1.00
H173   H     0.58729   0.41669   0.02578   0.00000  Uiso   1.00
H174   H     0.17736   0.68476   0.94173   0.00000  Uiso   1.00
H175   H     0.37790   0.62670   0.45743   0.00000  Uiso   1.00
O176   O     0.57786   0.26720   0.97727   0.00000  Uiso   1.00
O177   O     0.04005   0.61889   0.86702   0.00000  Uiso   1.00
O178   O     0.30314   0.54272   0.54360   0.00000  Uiso   1.00
N179   N     0.46032   0.27358   0.01436   0.00000  Uiso   1.00
N180   N     0.07706   0.52420   0.93577   0.00000  Uiso   1.00
N181   N     0.26453   0.46992   0.41790   0.00000  Uiso   1.00
N182   N     0.53976   0.38097   0.02764   0.00000  Uiso   1.00
N183   N     0.15651   0.63159   0.94905   0.00000  Uiso   1.00
N184   N     0.34398   0.57732   0.43118   0.00000  Uiso   1.00
C185   C     0.12326   0.25916   0.41128   0.00000  Uiso   1.00
C186   C     0.09776   0.33485   0.39898   0.00000  Uiso   1.00
C187   C     0.06933   0.35342   0.32716   0.00000  Uiso   1.00
C188   C     0.04917   0.42559   0.32833   0.00000  Uiso   1.00
C189   C     0.00832   0.53525   0.29852   0.00000  Uiso   1.00
C190   C     0.07730   0.22791   0.46947   0.00000  Uiso   1.00
C191   C     0.03168   0.15657   0.45693   0.00000  Uiso   1.00
C192   C     0.99429   0.13872   0.51744   0.00000  Uiso   1.00
C193   C     0.92172   0.08233   0.59709   0.00000  Uiso   1.00
C194   C     0.20481   0.27990   0.45432   0.00000  Uiso   1.00
C195   C     0.26640   0.25226   0.42906   0.00000  Uiso   1.00
C196   C     0.33637   0.27817   0.47684   0.00000  Uiso   1.00
C197   C     0.46178   0.30250   0.53296   0.00000  Uiso   1.00
C198   C     0.13800   0.35431   0.54106   0.00000  Uiso   1.00
C199   C     0.10577   0.38653   0.46947   0.00000  Uiso   1.00
C200   C     0.08564   0.45869   0.47075   0.00000  Uiso   1.00
C201   C     0.05719   0.47737   0.39895   0.00000  Uiso   1.00
C202   C     0.08531   0.27959   0.53996   0.00000  Uiso   1.00
C203   C     0.04798   0.26184   0.60051   0.00000  Uiso   1.00
C204   C     0.00231   0.19049   0.58806   0.00000  Uiso   1.00
C205   C     0.21282   0.33159   0.52481   0.00000  Uiso   1.00
C206   C     0.28270   0.35754   0.57264   0.00000  Uiso   1.00
C207   C     0.34439   0.32994   0.54745   0.00000  Uiso   1.00
H208   H     0.11702   0.21892   0.35640   0.00000  Uiso   1.00
H209   H     0.06314   0.31340   0.27262   0.00000  Uiso   1.00
H210   H     0.02550   0.11658   0.40237   0.00000  Uiso   1.00
H211   H     0.26018   0.21227   0.37451   0.00000  Uiso   1.00
H212   H     0.00690   0.44094   0.21083   0.00000  Uiso   1.00
H213   H     0.92755   0.02593   0.48442   0.00000  Uiso   1.00
H214   H     0.42243   0.22768   0.42567   0.00000  Uiso   1.00
H215   H     0.14423   0.39454   0.59594   0.00000  Uiso   1.00
H216   H     0.09184   0.49867   0.52531   0.00000  Uiso   1.00
H217   H     0.05420   0.30185   0.65506   0.00000  Uiso   1.00
H218   H     0.28888   0.39753   0.62719   0.00000  Uiso   1.00
H219   H     0.03020   0.59131   0.41592   0.00000  Uiso   1.00
H220   H     0.95084   0.17629   0.68951   0.00000  Uiso   1.00
H221   H     0.44572   0.37805   0.63075   0.00000  Uiso   1.00
O222   O     0.98357   0.58145   0.26260   0.00000  Uiso   1.00
O223   O     0.87948   0.03696   0.62154   0.00000  Uiso   1.00
O224   O     0.52874   0.30166   0.54445   0.00000  Uiso   1.00
N225   N     0.01959   0.46205   0.26879   0.00000  Uiso   1.00
N226   N     0.94539   0.07404   0.52458   0.00000  Uiso   1.00
N227   N     0.40806   0.26265   0.46965   0.00000  Uiso   1.00
N228   N     0.03213   0.54296   0.37915   0.00000  Uiso   1.00
N229   N     0.95792   0.15495   0.63493   0.00000  Uiso   1.00
N230   N     0.42059   0.34356   0.58001   0.00000  Uiso   1.00
C231   C     0.41397   0.12276   0.25719   0.00000  Uiso   1.00
C232   C     0.40225   0.09715   0.33472   0.00000  Uiso   1.00
C233   C     0.33335   0.06857   0.35365   0.00000  Uiso   1.00
C234   C     0.33456   0.04831   0.42758   0.00000  Uiso   1.00
C235   C     0.30607   0.00727   0.53988   0.00000  Uiso   1.00
C236   C     0.47003   0.07584   0.22503   0.00000  Uiso   1.00
C237   C     0.45811   0.02936   0.15174   0.00000  Uiso   1.00
C238   C     0.51637   0.99118   0.13334   0.00000  Uiso   1.00
C239   C     0.59313   0.91711   0.07534   0.00000  Uiso   1.00
C240   C     0.45507   0.20546   0.27872   0.00000  Uiso   1.00
C241   C     0.43059   0.26797   0.25055   0.00000  Uiso   1.00
C242   C     0.47628   0.33892   0.27734   0.00000  Uiso   1.00
C243   C     0.52981   0.46610   0.30269   0.00000  Uiso   1.00
C244   C     0.53866   0.13760   0.35483   0.00000  Uiso   1.00
C245   C     0.46998   0.10520   0.38775   0.00000  Uiso   1.00
C246   C     0.47130   0.08498   0.46168   0.00000  Uiso   1.00
C247   C     0.40240   0.05638   0.48072   0.00000  Uiso   1.00
C248   C     0.53775   0.08390   0.27807   0.00000  Uiso   1.00
C249   C     0.59606   0.04578   0.25977   0.00000  Uiso   1.00
C250   C     0.58422   0.99925   0.18647   0.00000  Uiso   1.00
C251   C     0.52280   0.21352   0.33176   0.00000  Uiso   1.00
C252   C     0.56854   0.28438   0.35859   0.00000  Uiso   1.00
C253   C     0.54413   0.34699   0.33047   0.00000  Uiso   1.00
H254   H     0.36125   0.11649   0.21589   0.00000  Uiso   1.00
H255   H     0.28095   0.06233   0.31258   0.00000  Uiso   1.00
H256   H     0.40569   0.02315   0.11071   0.00000  Uiso   1.00
H257   H     0.37818   0.26171   0.20951   0.00000  Uiso   1.00
H258   H     0.22179   0.00582   0.44316   0.00000  Uiso   1.00
H259   H     0.48483   0.92321   0.01748   0.00000  Uiso   1.00
H260   H     0.42681   0.42628   0.22582   0.00000  Uiso   1.00
H261   H     0.59139   0.14387   0.39612   0.00000  Uiso   1.00
H262   H     0.52372   0.09122   0.50271   0.00000  Uiso   1.00
H263   H     0.64846   0.05203   0.30083   0.00000  Uiso   1.00
H264   H     0.62094   0.29060   0.39963   0.00000  Uiso   1.00
H265   H     0.41883   0.02927   0.59747   0.00000  Uiso   1.00
H266   H     0.68187   0.94665   0.17179   0.00000  Uiso   1.00
H267   H     0.62385   0.44972   0.38014   0.00000  Uiso   1.00
O268   O     0.27165   0.98239   0.58717   0.00000  Uiso   1.00
O269   O     0.61675   0.87402   0.02869   0.00000  Uiso   1.00
O270   O     0.54063   0.53403   0.30203   0.00000  Uiso   1.00
N271   N     0.27745   0.01858   0.46486   0.00000  Uiso   1.00
N272   N     0.52337   0.94133   0.06688   0.00000  Uiso   1.00
N273   N     0.46914   0.41165   0.26164   0.00000  Uiso   1.00
N274   N     0.38347   0.03120   0.54789   0.00000  Uiso   1.00
N275   N     0.62940   0.95395   0.14991   0.00000  Uiso   1.00
N276   N     0.57516   0.42427   0.34468   0.00000  Uiso   1.00
