data_job_01171
_audit_creation_date              2018-12-19
_audit_creation_method            'Materials Studio'
_symmetry_space_group_name_H-M    'P1'
_symmetry_Int_Tables_number       1
_symmetry_cell_setting            triclinic
loop_
_symmetry_equiv_pos_as_xyz
  x,y,z
_cell_length_a                    16.0722
_cell_length_b                    25.8800
_cell_length_c                    20.2436
_cell_angle_alpha                 90.0000
_cell_angle_beta                  48.7163
_cell_angle_gamma                 90.0000
loop_
_atom_site_label
_atom_site_type_symbol
_atom_site_fract_x
_atom_site_fract_y
_atom_site_fract_z
_atom_site_U_iso_or_equiv
_atom_site_adp_type
_atom_site_occupancy
C1     C     0.74335   0.43525   0.45695   0.00000  Uiso   1.00
C2     C     0.79649   0.45018   0.36350   0.00000  Uiso   1.00
C3     C     0.83135   0.49938   0.32763   0.00000  Uiso   1.00
C4     C     0.87791   0.50508   0.24095   0.00000  Uiso   1.00
C5     C     0.95866   0.53466   0.10331   0.00000  Uiso   1.00
C6     C     0.63266   0.41033   0.49764   0.00000  Uiso   1.00
C7     C     0.52978   0.42603   0.57456   0.00000  Uiso   1.00
C8     C     0.43843   0.39817   0.60081   0.00000  Uiso   1.00
C9     C     0.26485   0.36586   0.67145   0.00000  Uiso   1.00
C10    C     0.81507   0.39222   0.44795   0.00000  Uiso   1.00
C11    C     0.86554   0.39268   0.48311   0.00000  Uiso   1.00
C12    C     0.92775   0.34957   0.46754   0.00000  Uiso   1.00
C13    C     0.03739   0.28914   0.46104   0.00000  Uiso   1.00
C14    C     0.76406   0.35788   0.36683   0.00000  Uiso   1.00
C15    C     0.80774   0.40815   0.31455   0.00000  Uiso   1.00
C16    C     0.85427   0.41378   0.22791   0.00000  Uiso   1.00
C17    C     0.88919   0.46298   0.19191   0.00000  Uiso   1.00
C18    C     0.64391   0.36831   0.44869   0.00000  Uiso   1.00
C19    C     0.55270   0.34042   0.47484   0.00000  Uiso   1.00
C20    C     0.44970   0.35607   0.55177   0.00000  Uiso   1.00
C21    C     0.82633   0.35019   0.39900   0.00000  Uiso   1.00
C22    C     0.88846   0.30707   0.38339   0.00000  Uiso   1.00
C23    C     0.93902   0.30747   0.41850   0.00000  Uiso   1.00
H24    H     0.73458   0.46797   0.49507   0.00000  Uiso   1.00
H25    H     0.82261   0.53190   0.36554   0.00000  Uiso   1.00
H26    H     0.52110   0.45855   0.61243   0.00000  Uiso   1.00
H27    H     0.85681   0.42520   0.52099   0.00000  Uiso   1.00
H28    H     0.92514   0.58424   0.20034   0.00000  Uiso   1.00
H29    H     0.28938   0.42957   0.72095   0.00000  Uiso   1.00
H30    H     0.99730   0.35926   0.52813   0.00000  Uiso   1.00
H31    H     0.77282   0.32516   0.32871   0.00000  Uiso   1.00
H32    H     0.86296   0.38125   0.19004   0.00000  Uiso   1.00
H33    H     0.56144   0.30790   0.43694   0.00000  Uiso   1.00
H34    H     0.89715   0.27456   0.34550   0.00000  Uiso   1.00
H35    H     0.95788   0.46198   0.05791   0.00000  Uiso   1.00
H36    H     0.32212   0.30730   0.57852   0.00000  Uiso   1.00
H37    H     0.03004   0.23699   0.38570   0.00000  Uiso   1.00
O38    O     0.00008   0.56259   0.04092   0.00000  Uiso   1.00
O39    O     0.16600   0.35966   0.72394   0.00000  Uiso   1.00
O40    O     0.09477   0.26742   0.47096   0.00000  Uiso   1.00
N41    N     0.92050   0.54777   0.18585   0.00000  Uiso   1.00
N42    N     0.32610   0.40316   0.67258   0.00000  Uiso   1.00
N43    N     0.98791   0.33742   0.49233   0.00000  Uiso   1.00
N44    N     0.93812   0.48198   0.10920   0.00000  Uiso   1.00
N45    N     0.34372   0.33737   0.59593   0.00000  Uiso   1.00
N46    N     0.00553   0.27163   0.41568   0.00000  Uiso   1.00
C47    C     0.24335   0.93525   0.45695   0.00000  Uiso   1.00
C48    C     0.29649   0.95018   0.36350   0.00000  Uiso   1.00
C49    C     0.33135   0.99938   0.32763   0.00000  Uiso   1.00
C50    C     0.37791   0.00508   0.24095   0.00000  Uiso   1.00
C51    C     0.45866   0.03466   0.10331   0.00000  Uiso   1.00
C52    C     0.13266   0.91033   0.49764   0.00000  Uiso   1.00
C53    C     0.02978   0.92603   0.57456   0.00000  Uiso   1.00
C54    C     0.93843   0.89817   0.60081   0.00000  Uiso   1.00
C55    C     0.76485   0.86586   0.67145   0.00000  Uiso   1.00
C56    C     0.31507   0.89222   0.44795   0.00000  Uiso   1.00
C57    C     0.36554   0.89268   0.48311   0.00000  Uiso   1.00
C58    C     0.42775   0.84957   0.46754   0.00000  Uiso   1.00
C59    C     0.53739   0.78914   0.46104   0.00000  Uiso   1.00
C60    C     0.26406   0.85788   0.36683   0.00000  Uiso   1.00
C61    C     0.30774   0.90815   0.31455   0.00000  Uiso   1.00
C62    C     0.35427   0.91378   0.22791   0.00000  Uiso   1.00
C63    C     0.38919   0.96298   0.19191   0.00000  Uiso   1.00
C64    C     0.14391   0.86831   0.44869   0.00000  Uiso   1.00
C65    C     0.05270   0.84042   0.47484   0.00000  Uiso   1.00
C66    C     0.94970   0.85607   0.55177   0.00000  Uiso   1.00
C67    C     0.32633   0.85019   0.39900   0.00000  Uiso   1.00
C68    C     0.38846   0.80707   0.38339   0.00000  Uiso   1.00
C69    C     0.43902   0.80747   0.41850   0.00000  Uiso   1.00
H70    H     0.23458   0.96797   0.49507   0.00000  Uiso   1.00
H71    H     0.32261   0.03190   0.36554   0.00000  Uiso   1.00
H72    H     0.02110   0.95855   0.61243   0.00000  Uiso   1.00
H73    H     0.35681   0.92520   0.52099   0.00000  Uiso   1.00
H74    H     0.42514   0.08424   0.20034   0.00000  Uiso   1.00
H75    H     0.78938   0.92957   0.72095   0.00000  Uiso   1.00
H76    H     0.49730   0.85926   0.52813   0.00000  Uiso   1.00
H77    H     0.27282   0.82516   0.32871   0.00000  Uiso   1.00
H78    H     0.36296   0.88125   0.19004   0.00000  Uiso   1.00
H79    H     0.06144   0.80790   0.43694   0.00000  Uiso   1.00
H80    H     0.39715   0.77456   0.34550   0.00000  Uiso   1.00
H81    H     0.45788   0.96198   0.05791   0.00000  Uiso   1.00
H82    H     0.82212   0.80730   0.57852   0.00000  Uiso   1.00
H83    H     0.53004   0.73699   0.38570   0.00000  Uiso   1.00
O84    O     0.50008   0.06259   0.04092   0.00000  Uiso   1.00
O85    O     0.66600   0.85966   0.72394   0.00000  Uiso   1.00
O86    O     0.59477   0.76742   0.47096   0.00000  Uiso   1.00
N87    N     0.42050   0.04777   0.18585   0.00000  Uiso   1.00
N88    N     0.82610   0.90316   0.67258   0.00000  Uiso   1.00
N89    N     0.48791   0.83742   0.49233   0.00000  Uiso   1.00
N90    N     0.43812   0.98198   0.10920   0.00000  Uiso   1.00
N91    N     0.84372   0.83737   0.59593   0.00000  Uiso   1.00
N92    N     0.50553   0.77163   0.41568   0.00000  Uiso   1.00
C93    C     0.25665   0.43525   0.04305   0.00000  Uiso   1.00
C94    C     0.20351   0.45018   0.13650   0.00000  Uiso   1.00
C95    C     0.16865   0.49938   0.17237   0.00000  Uiso   1.00
C96    C     0.12209   0.50508   0.25905   0.00000  Uiso   1.00
C97    C     0.04134   0.53466   0.39669   0.00000  Uiso   1.00
C98    C     0.36734   0.41033   0.00236   0.00000  Uiso   1.00
C99    C     0.47022   0.42603   0.92544   0.00000  Uiso   1.00
C100   C     0.56157   0.39817   0.89919   0.00000  Uiso   1.00
C101   C     0.73515   0.36586   0.82855   0.00000  Uiso   1.00
C102   C     0.18493   0.39222   0.05205   0.00000  Uiso   1.00
C103   C     0.13446   0.39268   0.01689   0.00000  Uiso   1.00
C104   C     0.07225   0.34957   0.03246   0.00000  Uiso   1.00
C105   C     0.96261   0.28914   0.03896   0.00000  Uiso   1.00
C106   C     0.23594   0.35788   0.13317   0.00000  Uiso   1.00
C107   C     0.19226   0.40815   0.18545   0.00000  Uiso   1.00
C108   C     0.14573   0.41378   0.27209   0.00000  Uiso   1.00
C109   C     0.11081   0.46298   0.30809   0.00000  Uiso   1.00
C110   C     0.35609   0.36831   0.05131   0.00000  Uiso   1.00
C111   C     0.44730   0.34042   0.02516   0.00000  Uiso   1.00
C112   C     0.55030   0.35607   0.94823   0.00000  Uiso   1.00
C113   C     0.17367   0.35019   0.10100   0.00000  Uiso   1.00
C114   C     0.11154   0.30707   0.11661   0.00000  Uiso   1.00
C115   C     0.06098   0.30747   0.08150   0.00000  Uiso   1.00
H116   H     0.26542   0.46797   0.00493   0.00000  Uiso   1.00
H117   H     0.17739   0.53190   0.13446   0.00000  Uiso   1.00
H118   H     0.47890   0.45855   0.88757   0.00000  Uiso   1.00
H119   H     0.14319   0.42520   0.97901   0.00000  Uiso   1.00
H120   H     0.07486   0.58424   0.29966   0.00000  Uiso   1.00
H121   H     0.71062   0.42957   0.77905   0.00000  Uiso   1.00
H122   H     0.00270   0.35926   0.97187   0.00000  Uiso   1.00
H123   H     0.22718   0.32516   0.17129   0.00000  Uiso   1.00
H124   H     0.13704   0.38125   0.30996   0.00000  Uiso   1.00
H125   H     0.43856   0.30790   0.06306   0.00000  Uiso   1.00
H126   H     0.10285   0.27456   0.15450   0.00000  Uiso   1.00
H127   H     0.04212   0.46198   0.44209   0.00000  Uiso   1.00
H128   H     0.67788   0.30730   0.92148   0.00000  Uiso   1.00
H129   H     0.96996   0.23699   0.11430   0.00000  Uiso   1.00
O130   O     0.99992   0.56259   0.45908   0.00000  Uiso   1.00
O131   O     0.83400   0.35966   0.77606   0.00000  Uiso   1.00
O132   O     0.90523   0.26742   0.02904   0.00000  Uiso   1.00
N133   N     0.07950   0.54777   0.31415   0.00000  Uiso   1.00
N134   N     0.67390   0.40316   0.82742   0.00000  Uiso   1.00
N135   N     0.01209   0.33742   0.00767   0.00000  Uiso   1.00
N136   N     0.06188   0.48198   0.39080   0.00000  Uiso   1.00
N137   N     0.65628   0.33737   0.90407   0.00000  Uiso   1.00
N138   N     0.99447   0.27163   0.08432   0.00000  Uiso   1.00
C139   C     0.75665   0.93525   0.04305   0.00000  Uiso   1.00
C140   C     0.70351   0.95018   0.13650   0.00000  Uiso   1.00
C141   C     0.66865   0.99938   0.17237   0.00000  Uiso   1.00
C142   C     0.62209   0.00508   0.25905   0.00000  Uiso   1.00
C143   C     0.54134   0.03466   0.39669   0.00000  Uiso   1.00
C144   C     0.86734   0.91033   0.00236   0.00000  Uiso   1.00
C145   C     0.97022   0.92603   0.92544   0.00000  Uiso   1.00
C146   C     0.06157   0.89817   0.89919   0.00000  Uiso   1.00
C147   C     0.23515   0.86586   0.82855   0.00000  Uiso   1.00
C148   C     0.68493   0.89222   0.05205   0.00000  Uiso   1.00
C149   C     0.63446   0.89268   0.01689   0.00000  Uiso   1.00
C150   C     0.57225   0.84957   0.03246   0.00000  Uiso   1.00
C151   C     0.46261   0.78914   0.03896   0.00000  Uiso   1.00
C152   C     0.73594   0.85788   0.13317   0.00000  Uiso   1.00
C153   C     0.69226   0.90815   0.18545   0.00000  Uiso   1.00
C154   C     0.64573   0.91378   0.27209   0.00000  Uiso   1.00
C155   C     0.61081   0.96298   0.30809   0.00000  Uiso   1.00
C156   C     0.85609   0.86831   0.05131   0.00000  Uiso   1.00
C157   C     0.94730   0.84042   0.02516   0.00000  Uiso   1.00
C158   C     0.05030   0.85607   0.94823   0.00000  Uiso   1.00
C159   C     0.67367   0.85019   0.10100   0.00000  Uiso   1.00
C160   C     0.61154   0.80707   0.11661   0.00000  Uiso   1.00
C161   C     0.56098   0.80747   0.08150   0.00000  Uiso   1.00
H162   H     0.76542   0.96797   0.00493   0.00000  Uiso   1.00
H163   H     0.67739   0.03190   0.13446   0.00000  Uiso   1.00
H164   H     0.97890   0.95855   0.88757   0.00000  Uiso   1.00
H165   H     0.64319   0.92520   0.97901   0.00000  Uiso   1.00
H166   H     0.57486   0.08424   0.29966   0.00000  Uiso   1.00
H167   H     0.21062   0.92957   0.77905   0.00000  Uiso   1.00
H168   H     0.50270   0.85926   0.97187   0.00000  Uiso   1.00
H169   H     0.72718   0.82516   0.17129   0.00000  Uiso   1.00
H170   H     0.63704   0.88125   0.30996   0.00000  Uiso   1.00
H171   H     0.93856   0.80790   0.06306   0.00000  Uiso   1.00
H172   H     0.60285   0.77456   0.15450   0.00000  Uiso   1.00
H173   H     0.54212   0.96198   0.44209   0.00000  Uiso   1.00
H174   H     0.17788   0.80730   0.92148   0.00000  Uiso   1.00
H175   H     0.46996   0.73699   0.11430   0.00000  Uiso   1.00
O176   O     0.49992   0.06259   0.45908   0.00000  Uiso   1.00
O177   O     0.33400   0.85966   0.77606   0.00000  Uiso   1.00
O178   O     0.40523   0.76742   0.02904   0.00000  Uiso   1.00
N179   N     0.57950   0.04777   0.31415   0.00000  Uiso   1.00
N180   N     0.17390   0.90316   0.82742   0.00000  Uiso   1.00
N181   N     0.51209   0.83742   0.00767   0.00000  Uiso   1.00
N182   N     0.56188   0.98198   0.39080   0.00000  Uiso   1.00
N183   N     0.15628   0.83737   0.90407   0.00000  Uiso   1.00
N184   N     0.49447   0.77163   0.08432   0.00000  Uiso   1.00
C185   C     0.25665   0.56475   0.54305   0.00000  Uiso   1.00
C186   C     0.20351   0.54982   0.63650   0.00000  Uiso   1.00
C187   C     0.16865   0.50062   0.67237   0.00000  Uiso   1.00
C188   C     0.12209   0.49492   0.75905   0.00000  Uiso   1.00
C189   C     0.04134   0.46534   0.89669   0.00000  Uiso   1.00
C190   C     0.36734   0.58967   0.50236   0.00000  Uiso   1.00
C191   C     0.47022   0.57397   0.42544   0.00000  Uiso   1.00
C192   C     0.56157   0.60183   0.39919   0.00000  Uiso   1.00
C193   C     0.73515   0.63414   0.32855   0.00000  Uiso   1.00
C194   C     0.18493   0.60778   0.55205   0.00000  Uiso   1.00
C195   C     0.13446   0.60732   0.51689   0.00000  Uiso   1.00
C196   C     0.07225   0.65043   0.53246   0.00000  Uiso   1.00
C197   C     0.96261   0.71086   0.53896   0.00000  Uiso   1.00
C198   C     0.23594   0.64212   0.63317   0.00000  Uiso   1.00
C199   C     0.19226   0.59185   0.68545   0.00000  Uiso   1.00
C200   C     0.14573   0.58622   0.77209   0.00000  Uiso   1.00
C201   C     0.11081   0.53702   0.80809   0.00000  Uiso   1.00
C202   C     0.35609   0.63169   0.55131   0.00000  Uiso   1.00
C203   C     0.44730   0.65958   0.52516   0.00000  Uiso   1.00
C204   C     0.55030   0.64393   0.44823   0.00000  Uiso   1.00
C205   C     0.17367   0.64981   0.60100   0.00000  Uiso   1.00
C206   C     0.11154   0.69293   0.61661   0.00000  Uiso   1.00
C207   C     0.06098   0.69253   0.58150   0.00000  Uiso   1.00
H208   H     0.26542   0.53203   0.50493   0.00000  Uiso   1.00
H209   H     0.17739   0.46810   0.63446   0.00000  Uiso   1.00
H210   H     0.47890   0.54145   0.38757   0.00000  Uiso   1.00
H211   H     0.14319   0.57480   0.47901   0.00000  Uiso   1.00
H212   H     0.07486   0.41576   0.79966   0.00000  Uiso   1.00
H213   H     0.71062   0.57043   0.27905   0.00000  Uiso   1.00
H214   H     0.00270   0.64074   0.47187   0.00000  Uiso   1.00
H215   H     0.22718   0.67484   0.67129   0.00000  Uiso   1.00
H216   H     0.13704   0.61875   0.80996   0.00000  Uiso   1.00
H217   H     0.43856   0.69210   0.56306   0.00000  Uiso   1.00
H218   H     0.10285   0.72544   0.65450   0.00000  Uiso   1.00
H219   H     0.04212   0.53802   0.94209   0.00000  Uiso   1.00
H220   H     0.67788   0.69270   0.42148   0.00000  Uiso   1.00
H221   H     0.96996   0.76301   0.61430   0.00000  Uiso   1.00
O222   O     0.99992   0.43741   0.95908   0.00000  Uiso   1.00
O223   O     0.83400   0.64034   0.27606   0.00000  Uiso   1.00
O224   O     0.90523   0.73258   0.52904   0.00000  Uiso   1.00
N225   N     0.07950   0.45223   0.81415   0.00000  Uiso   1.00
N226   N     0.67390   0.59684   0.32742   0.00000  Uiso   1.00
N227   N     0.01209   0.66258   0.50767   0.00000  Uiso   1.00
N228   N     0.06188   0.51802   0.89080   0.00000  Uiso   1.00
N229   N     0.65628   0.66263   0.40407   0.00000  Uiso   1.00
N230   N     0.99447   0.72837   0.58432   0.00000  Uiso   1.00
C231   C     0.75665   0.06475   0.54305   0.00000  Uiso   1.00
C232   C     0.70351   0.04982   0.63650   0.00000  Uiso   1.00
C233   C     0.66865   0.00062   0.67237   0.00000  Uiso   1.00
C234   C     0.62209   0.99492   0.75905   0.00000  Uiso   1.00
C235   C     0.54134   0.96534   0.89669   0.00000  Uiso   1.00
C236   C     0.86734   0.08967   0.50236   0.00000  Uiso   1.00
C237   C     0.97022   0.07397   0.42544   0.00000  Uiso   1.00
C238   C     0.06157   0.10183   0.39919   0.00000  Uiso   1.00
C239   C     0.23515   0.13414   0.32855   0.00000  Uiso   1.00
C240   C     0.68493   0.10778   0.55205   0.00000  Uiso   1.00
C241   C     0.63446   0.10732   0.51689   0.00000  Uiso   1.00
C242   C     0.57225   0.15043   0.53246   0.00000  Uiso   1.00
C243   C     0.46261   0.21086   0.53896   0.00000  Uiso   1.00
C244   C     0.73594   0.14212   0.63317   0.00000  Uiso   1.00
C245   C     0.69226   0.09185   0.68545   0.00000  Uiso   1.00
C246   C     0.64573   0.08622   0.77209   0.00000  Uiso   1.00
C247   C     0.61081   0.03702   0.80809   0.00000  Uiso   1.00
C248   C     0.85609   0.13169   0.55131   0.00000  Uiso   1.00
C249   C     0.94730   0.15958   0.52516   0.00000  Uiso   1.00
C250   C     0.05030   0.14393   0.44823   0.00000  Uiso   1.00
C251   C     0.67367   0.14981   0.60100   0.00000  Uiso   1.00
C252   C     0.61154   0.19293   0.61661   0.00000  Uiso   1.00
C253   C     0.56098   0.19253   0.58150   0.00000  Uiso   1.00
H254   H     0.76542   0.03203   0.50493   0.00000  Uiso   1.00
H255   H     0.67739   0.96810   0.63446   0.00000  Uiso   1.00
H256   H     0.97890   0.04145   0.38757   0.00000  Uiso   1.00
H257   H     0.64319   0.07480   0.47901   0.00000  Uiso   1.00
H258   H     0.57486   0.91576   0.79966   0.00000  Uiso   1.00
H259   H     0.21062   0.07043   0.27905   0.00000  Uiso   1.00
H260   H     0.50270   0.14074   0.47187   0.00000  Uiso   1.00
H261   H     0.72718   0.17484   0.67129   0.00000  Uiso   1.00
H262   H     0.63704   0.11875   0.80996   0.00000  Uiso   1.00
H263   H     0.93856   0.19210   0.56306   0.00000  Uiso   1.00
H264   H     0.60285   0.22544   0.65450   0.00000  Uiso   1.00
H265   H     0.54212   0.03802   0.94209   0.00000  Uiso   1.00
H266   H     0.17788   0.19270   0.42148   0.00000  Uiso   1.00
H267   H     0.46996   0.26301   0.61430   0.00000  Uiso   1.00
O268   O     0.49992   0.93741   0.95908   0.00000  Uiso   1.00
O269   O     0.33400   0.14034   0.27606   0.00000  Uiso   1.00
O270   O     0.40523   0.23258   0.52904   0.00000  Uiso   1.00
N271   N     0.57950   0.95223   0.81415   0.00000  Uiso   1.00
N272   N     0.17390   0.09684   0.32742   0.00000  Uiso   1.00
N273   N     0.51209   0.16258   0.50767   0.00000  Uiso   1.00
N274   N     0.56188   0.01802   0.89080   0.00000  Uiso   1.00
N275   N     0.15628   0.16263   0.40407   0.00000  Uiso   1.00
N276   N     0.49447   0.22837   0.58432   0.00000  Uiso   1.00
C277   C     0.74335   0.56475   0.95695   0.00000  Uiso   1.00
C278   C     0.79649   0.54982   0.86350   0.00000  Uiso   1.00
C279   C     0.83135   0.50062   0.82763   0.00000  Uiso   1.00
C280   C     0.87791   0.49492   0.74095   0.00000  Uiso   1.00
C281   C     0.95866   0.46534   0.60331   0.00000  Uiso   1.00
C282   C     0.63266   0.58967   0.99764   0.00000  Uiso   1.00
C283   C     0.52978   0.57397   0.07456   0.00000  Uiso   1.00
C284   C     0.43843   0.60183   0.10081   0.00000  Uiso   1.00
C285   C     0.26485   0.63414   0.17145   0.00000  Uiso   1.00
C286   C     0.81507   0.60778   0.94795   0.00000  Uiso   1.00
C287   C     0.86554   0.60732   0.98311   0.00000  Uiso   1.00
C288   C     0.92775   0.65043   0.96754   0.00000  Uiso   1.00
C289   C     0.03739   0.71086   0.96104   0.00000  Uiso   1.00
C290   C     0.76406   0.64212   0.86683   0.00000  Uiso   1.00
C291   C     0.80774   0.59185   0.81455   0.00000  Uiso   1.00
C292   C     0.85427   0.58622   0.72791   0.00000  Uiso   1.00
C293   C     0.88919   0.53702   0.69191   0.00000  Uiso   1.00
C294   C     0.64391   0.63169   0.94869   0.00000  Uiso   1.00
C295   C     0.55270   0.65958   0.97484   0.00000  Uiso   1.00
C296   C     0.44970   0.64393   0.05177   0.00000  Uiso   1.00
C297   C     0.82633   0.64981   0.89900   0.00000  Uiso   1.00
C298   C     0.88846   0.69293   0.88339   0.00000  Uiso   1.00
C299   C     0.93902   0.69253   0.91850   0.00000  Uiso   1.00
H300   H     0.73458   0.53203   0.99507   0.00000  Uiso   1.00
H301   H     0.82261   0.46810   0.86554   0.00000  Uiso   1.00
H302   H     0.52110   0.54145   0.11243   0.00000  Uiso   1.00
H303   H     0.85681   0.57480   0.02099   0.00000  Uiso   1.00
H304   H     0.92514   0.41576   0.70034   0.00000  Uiso   1.00
H305   H     0.28938   0.57043   0.22095   0.00000  Uiso   1.00
H306   H     0.99730   0.64074   0.02813   0.00000  Uiso   1.00
H307   H     0.77282   0.67484   0.82871   0.00000  Uiso   1.00
H308   H     0.86296   0.61875   0.69004   0.00000  Uiso   1.00
H309   H     0.56144   0.69210   0.93694   0.00000  Uiso   1.00
H310   H     0.89715   0.72544   0.84550   0.00000  Uiso   1.00
H311   H     0.95788   0.53802   0.55791   0.00000  Uiso   1.00
H312   H     0.32212   0.69270   0.07852   0.00000  Uiso   1.00
H313   H     0.03004   0.76301   0.88570   0.00000  Uiso   1.00
O314   O     0.00008   0.43741   0.54092   0.00000  Uiso   1.00
O315   O     0.16600   0.64034   0.22394   0.00000  Uiso   1.00
O316   O     0.09477   0.73258   0.97096   0.00000  Uiso   1.00
N317   N     0.92050   0.45223   0.68585   0.00000  Uiso   1.00
N318   N     0.32610   0.59684   0.17258   0.00000  Uiso   1.00
N319   N     0.98791   0.66258   0.99233   0.00000  Uiso   1.00
N320   N     0.93812   0.51802   0.60920   0.00000  Uiso   1.00
N321   N     0.34372   0.66263   0.09593   0.00000  Uiso   1.00
N322   N     0.00553   0.72837   0.91568   0.00000  Uiso   1.00
C323   C     0.24335   0.06475   0.95695   0.00000  Uiso   1.00
C324   C     0.29649   0.04982   0.86350   0.00000  Uiso   1.00
C325   C     0.33135   0.00062   0.82763   0.00000  Uiso   1.00
C326   C     0.37791   0.99492   0.74095   0.00000  Uiso   1.00
C327   C     0.45866   0.96534   0.60331   0.00000  Uiso   1.00
C328   C     0.13266   0.08967   0.99764   0.00000  Uiso   1.00
C329   C     0.02978   0.07397   0.07456   0.00000  Uiso   1.00
C330   C     0.93843   0.10183   0.10081   0.00000  Uiso   1.00
C331   C     0.76485   0.13414   0.17145   0.00000  Uiso   1.00
C332   C     0.31507   0.10778   0.94795   0.00000  Uiso   1.00
C333   C     0.36554   0.10732   0.98311   0.00000  Uiso   1.00
C334   C     0.42775   0.15043   0.96754   0.00000  Uiso   1.00
C335   C     0.53739   0.21086   0.96104   0.00000  Uiso   1.00
C336   C     0.26406   0.14212   0.86683   0.00000  Uiso   1.00
C337   C     0.30774   0.09185   0.81455   0.00000  Uiso   1.00
C338   C     0.35427   0.08622   0.72791   0.00000  Uiso   1.00
C339   C     0.38919   0.03702   0.69191   0.00000  Uiso   1.00
C340   C     0.14391   0.13169   0.94869   0.00000  Uiso   1.00
C341   C     0.05270   0.15958   0.97484   0.00000  Uiso   1.00
C342   C     0.94970   0.14393   0.05177   0.00000  Uiso   1.00
C343   C     0.32633   0.14981   0.89900   0.00000  Uiso   1.00
C344   C     0.38846   0.19293   0.88339   0.00000  Uiso   1.00
C345   C     0.43902   0.19253   0.91850   0.00000  Uiso   1.00
H346   H     0.23458   0.03203   0.99507   0.00000  Uiso   1.00
H347   H     0.32261   0.96810   0.86554   0.00000  Uiso   1.00
H348   H     0.02110   0.04145   0.11243   0.00000  Uiso   1.00
H349   H     0.35681   0.07480   0.02099   0.00000  Uiso   1.00
H350   H     0.42514   0.91576   0.70034   0.00000  Uiso   1.00
H351   H     0.78938   0.07043   0.22095   0.00000  Uiso   1.00
H352   H     0.49730   0.14074   0.02813   0.00000  Uiso   1.00
H353   H     0.27282   0.17484   0.82871   0.00000  Uiso   1.00
H354   H     0.36296   0.11875   0.69004   0.00000  Uiso   1.00
H355   H     0.06144   0.19210   0.93694   0.00000  Uiso   1.00
H356   H     0.39715   0.22544   0.84550   0.00000  Uiso   1.00
H357   H     0.45788   0.03802   0.55791   0.00000  Uiso   1.00
H358   H     0.82212   0.19270   0.07852   0.00000  Uiso   1.00
H359   H     0.53004   0.26301   0.88570   0.00000  Uiso   1.00
O360   O     0.50008   0.93741   0.54092   0.00000  Uiso   1.00
O361   O     0.66600   0.14034   0.22394   0.00000  Uiso   1.00
O362   O     0.59477   0.23258   0.97096   0.00000  Uiso   1.00
N363   N     0.42050   0.95223   0.68585   0.00000  Uiso   1.00
N364   N     0.82610   0.09684   0.17258   0.00000  Uiso   1.00
N365   N     0.48791   0.16258   0.99233   0.00000  Uiso   1.00
N366   N     0.43812   0.01802   0.60920   0.00000  Uiso   1.00
N367   N     0.84372   0.16263   0.09593   0.00000  Uiso   1.00
N368   N     0.50553   0.22837   0.91568   0.00000  Uiso   1.00
