data_job_03193
_audit_creation_date              2018-12-19
_audit_creation_method            'Materials Studio'
_symmetry_space_group_name_H-M    'P1'
_symmetry_Int_Tables_number       1
_symmetry_cell_setting            triclinic
loop_
_symmetry_equiv_pos_as_xyz
  x,y,z
_cell_length_a                    10.1552
_cell_length_b                    12.7015
_cell_length_c                    22.6889
_cell_angle_alpha                 90.0000
_cell_angle_beta                  80.9423
_cell_angle_gamma                 90.0000
loop_
_atom_site_label
_atom_site_type_symbol
_atom_site_fract_x
_atom_site_fract_y
_atom_site_fract_z
_atom_site_U_iso_or_equiv
_atom_site_adp_type
_atom_site_occupancy
C1     C     0.01532   0.63704   0.92820   0.00000  Uiso   1.00
C2     C     0.91816   0.70630   0.96924   0.00000  Uiso   1.00
C3     C     0.86760   0.68498   0.02848   0.00000  Uiso   1.00
C4     C     0.77995   0.75819   0.05840   0.00000  Uiso   1.00
C5     C     0.63447   0.85183   0.12644   0.00000  Uiso   1.00
C6     C     0.94793   0.61320   0.87419   0.00000  Uiso   1.00
C7     C     0.92242   0.51360   0.85350   0.00000  Uiso   1.00
C8     C     0.85984   0.50844   0.80340   0.00000  Uiso   1.00
C9     C     0.76067   0.45754   0.72385   0.00000  Uiso   1.00
C10    C     0.13480   0.70670   0.90538   0.00000  Uiso   1.00
C11    C     0.26642   0.68571   0.91090   0.00000  Uiso   1.00
C12    C     0.36117   0.75927   0.88704   0.00000  Uiso   1.00
C13    C     0.55213   0.85355   0.85591   0.00000  Uiso   1.00
C14    C     0.94956   0.80498   0.87600   0.00000  Uiso   1.00
C15    C     0.88244   0.79752   0.94089   0.00000  Uiso   1.00
C16    C     0.79485   0.87078   0.97073   0.00000  Uiso   1.00
C17    C     0.74417   0.84957   0.03000   0.00000  Uiso   1.00
C18    C     0.91221   0.70441   0.84584   0.00000  Uiso   1.00
C19    C     0.84966   0.69940   0.79575   0.00000  Uiso   1.00
C20    C     0.82406   0.59982   0.77500   0.00000  Uiso   1.00
C21    C     0.09908   0.79792   0.87703   0.00000  Uiso   1.00
C22    C     0.19365   0.87152   0.85315   0.00000  Uiso   1.00
C23    C     0.32539   0.85065   0.85864   0.00000  Uiso   1.00
H24    H     0.04313   0.56602   0.95026   0.00000  Uiso   1.00
H25    H     0.89526   0.61437   0.05040   0.00000  Uiso   1.00
H26    H     0.95009   0.44302   0.87545   0.00000  Uiso   1.00
H27    H     0.29402   0.61512   0.93284   0.00000  Uiso   1.00
H28    H     0.71554   0.70819   0.14891   0.00000  Uiso   1.00
H29    H     0.83117   0.34689   0.78001   0.00000  Uiso   1.00
H30    H     0.55643   0.70977   0.90102   0.00000  Uiso   1.00
H31    H     0.92175   0.87600   0.85392   0.00000  Uiso   1.00
H32    H     0.76722   0.94136   0.94877   0.00000  Uiso   1.00
H33    H     0.82204   0.77001   0.77382   0.00000  Uiso   1.00
H34    H     0.16598   0.94210   0.83121   0.00000  Uiso   1.00
H35    H     0.61161   0.97358   0.06643   0.00000  Uiso   1.00
H36    H     0.72725   0.61228   0.69752   0.00000  Uiso   1.00
H37    H     0.45251   0.97517   0.81854   0.00000  Uiso   1.00
O38    O     0.56407   0.87827   0.17180   0.00000  Uiso   1.00
O39    O     0.71581   0.40426   0.68781   0.00000  Uiso   1.00
O40    O     0.66733   0.88036   0.84658   0.00000  Uiso   1.00
N41    N     0.71230   0.76169   0.11648   0.00000  Uiso   1.00
N42    N     0.82040   0.42389   0.77159   0.00000  Uiso   1.00
N43    N     0.49846   0.76315   0.88471   0.00000  Uiso   1.00
N44    N     0.65638   0.90450   0.07210   0.00000  Uiso   1.00
N45    N     0.76448   0.56670   0.72720   0.00000  Uiso   1.00
N46    N     0.44254   0.90596   0.84033   0.00000  Uiso   1.00
C47    C     0.98468   0.63704   0.57180   0.00000  Uiso   1.00
C48    C     0.08184   0.70630   0.53076   0.00000  Uiso   1.00
C49    C     0.13240   0.68498   0.47152   0.00000  Uiso   1.00
C50    C     0.22005   0.75819   0.44160   0.00000  Uiso   1.00
C51    C     0.36553   0.85183   0.37356   0.00000  Uiso   1.00
C52    C     0.05207   0.61320   0.62581   0.00000  Uiso   1.00
C53    C     0.07758   0.51360   0.64650   0.00000  Uiso   1.00
C54    C     0.14016   0.50844   0.69660   0.00000  Uiso   1.00
C55    C     0.23933   0.45754   0.77615   0.00000  Uiso   1.00
C56    C     0.86520   0.70670   0.59462   0.00000  Uiso   1.00
C57    C     0.73358   0.68571   0.58910   0.00000  Uiso   1.00
C58    C     0.63883   0.75927   0.61296   0.00000  Uiso   1.00
C59    C     0.44787   0.85355   0.64409   0.00000  Uiso   1.00
C60    C     0.05044   0.80498   0.62400   0.00000  Uiso   1.00
C61    C     0.11756   0.79752   0.55911   0.00000  Uiso   1.00
C62    C     0.20515   0.87078   0.52927   0.00000  Uiso   1.00
C63    C     0.25583   0.84957   0.47000   0.00000  Uiso   1.00
C64    C     0.08779   0.70441   0.65416   0.00000  Uiso   1.00
C65    C     0.15034   0.69940   0.70425   0.00000  Uiso   1.00
C66    C     0.17594   0.59982   0.72500   0.00000  Uiso   1.00
C67    C     0.90092   0.79792   0.62297   0.00000  Uiso   1.00
C68    C     0.80635   0.87152   0.64685   0.00000  Uiso   1.00
C69    C     0.67461   0.85065   0.64136   0.00000  Uiso   1.00
H70    H     0.95687   0.56602   0.54974   0.00000  Uiso   1.00
H71    H     0.10474   0.61437   0.44960   0.00000  Uiso   1.00
H72    H     0.04991   0.44302   0.62455   0.00000  Uiso   1.00
H73    H     0.70598   0.61512   0.56716   0.00000  Uiso   1.00
H74    H     0.28446   0.70819   0.35109   0.00000  Uiso   1.00
H75    H     0.16883   0.34689   0.71999   0.00000  Uiso   1.00
H76    H     0.44357   0.70977   0.59898   0.00000  Uiso   1.00
H77    H     0.07825   0.87600   0.64608   0.00000  Uiso   1.00
H78    H     0.23278   0.94136   0.55123   0.00000  Uiso   1.00
H79    H     0.17796   0.77001   0.72618   0.00000  Uiso   1.00
H80    H     0.83402   0.94210   0.66879   0.00000  Uiso   1.00
H81    H     0.38839   0.97358   0.43357   0.00000  Uiso   1.00
H82    H     0.27275   0.61228   0.80248   0.00000  Uiso   1.00
H83    H     0.54749   0.97517   0.68146   0.00000  Uiso   1.00
O84    O     0.43593   0.87827   0.32820   0.00000  Uiso   1.00
O85    O     0.28419   0.40426   0.81219   0.00000  Uiso   1.00
O86    O     0.33267   0.88036   0.65342   0.00000  Uiso   1.00
N87    N     0.28770   0.76169   0.38352   0.00000  Uiso   1.00
N88    N     0.17960   0.42389   0.72841   0.00000  Uiso   1.00
N89    N     0.50154   0.76315   0.61529   0.00000  Uiso   1.00
N90    N     0.34362   0.90450   0.42790   0.00000  Uiso   1.00
N91    N     0.23552   0.56670   0.77280   0.00000  Uiso   1.00
N92    N     0.55746   0.90596   0.65967   0.00000  Uiso   1.00
C93    C     0.98468   0.36296   0.07180   0.00000  Uiso   1.00
C94    C     0.08184   0.29370   0.03076   0.00000  Uiso   1.00
C95    C     0.13240   0.31502   0.97152   0.00000  Uiso   1.00
C96    C     0.22005   0.24181   0.94160   0.00000  Uiso   1.00
C97    C     0.36553   0.14817   0.87356   0.00000  Uiso   1.00
C98    C     0.05207   0.38680   0.12581   0.00000  Uiso   1.00
C99    C     0.07758   0.48640   0.14650   0.00000  Uiso   1.00
C100   C     0.14016   0.49156   0.19660   0.00000  Uiso   1.00
C101   C     0.23933   0.54246   0.27615   0.00000  Uiso   1.00
C102   C     0.86520   0.29330   0.09462   0.00000  Uiso   1.00
C103   C     0.73358   0.31429   0.08910   0.00000  Uiso   1.00
C104   C     0.63883   0.24073   0.11296   0.00000  Uiso   1.00
C105   C     0.44787   0.14645   0.14409   0.00000  Uiso   1.00
C106   C     0.05044   0.19502   0.12400   0.00000  Uiso   1.00
C107   C     0.11756   0.20248   0.05911   0.00000  Uiso   1.00
C108   C     0.20515   0.12922   0.02927   0.00000  Uiso   1.00
C109   C     0.25583   0.15043   0.97000   0.00000  Uiso   1.00
C110   C     0.08779   0.29559   0.15416   0.00000  Uiso   1.00
C111   C     0.15034   0.30060   0.20425   0.00000  Uiso   1.00
C112   C     0.17594   0.40018   0.22500   0.00000  Uiso   1.00
C113   C     0.90092   0.20208   0.12297   0.00000  Uiso   1.00
C114   C     0.80635   0.12848   0.14685   0.00000  Uiso   1.00
C115   C     0.67461   0.14935   0.14136   0.00000  Uiso   1.00
H116   H     0.95687   0.43398   0.04974   0.00000  Uiso   1.00
H117   H     0.10474   0.38563   0.94960   0.00000  Uiso   1.00
H118   H     0.04991   0.55698   0.12455   0.00000  Uiso   1.00
H119   H     0.70598   0.38488   0.06716   0.00000  Uiso   1.00
H120   H     0.28446   0.29181   0.85109   0.00000  Uiso   1.00
H121   H     0.16883   0.65311   0.21999   0.00000  Uiso   1.00
H122   H     0.44357   0.29023   0.09898   0.00000  Uiso   1.00
H123   H     0.07825   0.12400   0.14608   0.00000  Uiso   1.00
H124   H     0.23278   0.05864   0.05123   0.00000  Uiso   1.00
H125   H     0.17796   0.22999   0.22618   0.00000  Uiso   1.00
H126   H     0.83402   0.05790   0.16879   0.00000  Uiso   1.00
H127   H     0.38839   0.02642   0.93357   0.00000  Uiso   1.00
H128   H     0.27275   0.38772   0.30248   0.00000  Uiso   1.00
H129   H     0.54749   0.02483   0.18146   0.00000  Uiso   1.00
O130   O     0.43593   0.12173   0.82820   0.00000  Uiso   1.00
O131   O     0.28419   0.59574   0.31219   0.00000  Uiso   1.00
O132   O     0.33267   0.11964   0.15342   0.00000  Uiso   1.00
N133   N     0.28770   0.23831   0.88352   0.00000  Uiso   1.00
N134   N     0.17960   0.57611   0.22841   0.00000  Uiso   1.00
N135   N     0.50154   0.23685   0.11529   0.00000  Uiso   1.00
N136   N     0.34362   0.09550   0.92790   0.00000  Uiso   1.00
N137   N     0.23552   0.43330   0.27280   0.00000  Uiso   1.00
N138   N     0.55746   0.09404   0.15967   0.00000  Uiso   1.00
C139   C     0.01532   0.36296   0.42820   0.00000  Uiso   1.00
C140   C     0.91816   0.29370   0.46924   0.00000  Uiso   1.00
C141   C     0.86760   0.31502   0.52848   0.00000  Uiso   1.00
C142   C     0.77995   0.24181   0.55840   0.00000  Uiso   1.00
C143   C     0.63447   0.14817   0.62644   0.00000  Uiso   1.00
C144   C     0.94793   0.38680   0.37419   0.00000  Uiso   1.00
C145   C     0.92242   0.48640   0.35350   0.00000  Uiso   1.00
C146   C     0.85984   0.49156   0.30340   0.00000  Uiso   1.00
C147   C     0.76067   0.54246   0.22385   0.00000  Uiso   1.00
C148   C     0.13480   0.29330   0.40538   0.00000  Uiso   1.00
C149   C     0.26642   0.31429   0.41090   0.00000  Uiso   1.00
C150   C     0.36117   0.24073   0.38704   0.00000  Uiso   1.00
C151   C     0.55213   0.14645   0.35591   0.00000  Uiso   1.00
C152   C     0.94956   0.19502   0.37600   0.00000  Uiso   1.00
C153   C     0.88244   0.20248   0.44089   0.00000  Uiso   1.00
C154   C     0.79485   0.12922   0.47073   0.00000  Uiso   1.00
C155   C     0.74417   0.15043   0.53000   0.00000  Uiso   1.00
C156   C     0.91221   0.29559   0.34584   0.00000  Uiso   1.00
C157   C     0.84966   0.30060   0.29575   0.00000  Uiso   1.00
C158   C     0.82406   0.40018   0.27500   0.00000  Uiso   1.00
C159   C     0.09908   0.20208   0.37703   0.00000  Uiso   1.00
C160   C     0.19365   0.12848   0.35315   0.00000  Uiso   1.00
C161   C     0.32539   0.14935   0.35864   0.00000  Uiso   1.00
H162   H     0.04313   0.43398   0.45026   0.00000  Uiso   1.00
H163   H     0.89526   0.38563   0.55040   0.00000  Uiso   1.00
H164   H     0.95009   0.55698   0.37545   0.00000  Uiso   1.00
H165   H     0.29402   0.38488   0.43284   0.00000  Uiso   1.00
H166   H     0.71554   0.29181   0.64891   0.00000  Uiso   1.00
H167   H     0.83117   0.65311   0.28001   0.00000  Uiso   1.00
H168   H     0.55643   0.29023   0.40102   0.00000  Uiso   1.00
H169   H     0.92175   0.12400   0.35392   0.00000  Uiso   1.00
H170   H     0.76722   0.05864   0.44877   0.00000  Uiso   1.00
H171   H     0.82204   0.22999   0.27382   0.00000  Uiso   1.00
H172   H     0.16598   0.05790   0.33121   0.00000  Uiso   1.00
H173   H     0.61161   0.02642   0.56643   0.00000  Uiso   1.00
H174   H     0.72725   0.38772   0.19752   0.00000  Uiso   1.00
H175   H     0.45251   0.02483   0.31854   0.00000  Uiso   1.00
O176   O     0.56407   0.12173   0.67180   0.00000  Uiso   1.00
O177   O     0.71581   0.59574   0.18781   0.00000  Uiso   1.00
O178   O     0.66733   0.11964   0.34658   0.00000  Uiso   1.00
N179   N     0.71230   0.23831   0.61648   0.00000  Uiso   1.00
N180   N     0.82040   0.57611   0.27159   0.00000  Uiso   1.00
N181   N     0.49846   0.23685   0.38471   0.00000  Uiso   1.00
N182   N     0.65638   0.09550   0.57210   0.00000  Uiso   1.00
N183   N     0.76448   0.43330   0.22720   0.00000  Uiso   1.00
N184   N     0.44254   0.09404   0.34033   0.00000  Uiso   1.00
