data_job_06770
_audit_creation_date              2018-12-19
_audit_creation_method            'Materials Studio'
_symmetry_space_group_name_H-M    'P1'
_symmetry_Int_Tables_number       1
_symmetry_cell_setting            triclinic
loop_
_symmetry_equiv_pos_as_xyz
  x,y,z
_cell_length_a                    17.6841
_cell_length_b                    21.0429
_cell_length_c                    23.3011
_cell_angle_alpha                 104.0310
_cell_angle_beta                  92.5087
_cell_angle_gamma                 74.4513
loop_
_atom_site_label
_atom_site_type_symbol
_atom_site_fract_x
_atom_site_fract_y
_atom_site_fract_z
_atom_site_U_iso_or_equiv
_atom_site_adp_type
_atom_site_occupancy
C1     C     0.66197   0.77153   0.29502   0.00000  Uiso   1.00
C2     C     0.57757   0.80611   0.31711   0.00000  Uiso   1.00
C3     C     0.54881   0.87383   0.34643   0.00000  Uiso   1.00
C4     C     0.46985   0.89570   0.36302   0.00000  Uiso   1.00
C5     C     0.34617   0.95613   0.39922   0.00000  Uiso   1.00
C6     C     0.68995   0.71143   0.32346   0.00000  Uiso   1.00
C7     C     0.75570   0.69955   0.35811   0.00000  Uiso   1.00
C8     C     0.77135   0.64171   0.38005   0.00000  Uiso   1.00
C9     C     0.82218   0.55513   0.42607   0.00000  Uiso   1.00
C10    C     0.65732   0.74112   0.22896   0.00000  Uiso   1.00
C11    C     0.69564   0.75419   0.18414   0.00000  Uiso   1.00
C12    C     0.68383   0.72133   0.12651   0.00000  Uiso   1.00
C13    C     0.68399   0.68085   0.02580   0.00000  Uiso   1.00
C14    C     0.57286   0.68993   0.27235   0.00000  Uiso   1.00
C15    C     0.52917   0.76179   0.30479   0.00000  Uiso   1.00
C16    C     0.45023   0.78356   0.32134   0.00000  Uiso   1.00
C17    C     0.42136   0.85130   0.35068   0.00000  Uiso   1.00
C18    C     0.64156   0.66711   0.31115   0.00000  Uiso   1.00
C19    C     0.65712   0.60928   0.33303   0.00000  Uiso   1.00
C20    C     0.72286   0.59731   0.36771   0.00000  Uiso   1.00
C21    C     0.60892   0.69680   0.21664   0.00000  Uiso   1.00
C22    C     0.59705   0.66392   0.15906   0.00000  Uiso   1.00
C23    C     0.63534   0.67693   0.11417   0.00000  Uiso   1.00
H24    H     0.69965   0.80603   0.30461   0.00000  Uiso   1.00
H25    H     0.58629   0.90811   0.35595   0.00000  Uiso   1.00
H26    H     0.79315   0.73385   0.36763   0.00000  Uiso   1.00
H27    H     0.73309   0.78848   0.19369   0.00000  Uiso   1.00
H28    H     0.43927   0.00174   0.40747   0.00000  Uiso   1.00
H29    H     0.87545   0.63429   0.43208   0.00000  Uiso   1.00
H30    H     0.74882   0.74949   0.06529   0.00000  Uiso   1.00
H31    H     0.53518   0.65543   0.26276   0.00000  Uiso   1.00
H32    H     0.41279   0.74925   0.31181   0.00000  Uiso   1.00
H33    H     0.61965   0.57499   0.32349   0.00000  Uiso   1.00
H34    H     0.55959   0.62962   0.14955   0.00000  Uiso   1.00
H35    H     0.29846   0.87280   0.37164   0.00000  Uiso   1.00
H36    H     0.73464   0.50535   0.39625   0.00000  Uiso   1.00
H37    H     0.60800   0.62056   0.02946   0.00000  Uiso   1.00
O38    O     0.29133   0.00170   0.42260   0.00000  Uiso   1.00
O39    O     0.86359   0.51962   0.45487   0.00000  Uiso   1.00
O40    O     0.69744   0.67077   0.97366   0.00000  Uiso   1.00
N41    N     0.42292   0.95852   0.39230   0.00000  Uiso   1.00
N42    N     0.83072   0.61498   0.41531   0.00000  Uiso   1.00
N43    N     0.71234   0.72268   0.07240   0.00000  Uiso   1.00
N44    N     0.34715   0.88914   0.37302   0.00000  Uiso   1.00
N45    N     0.75495   0.54560   0.39603   0.00000  Uiso   1.00
N46    N     0.63657   0.65330   0.05312   0.00000  Uiso   1.00
C47    C     0.87512   0.56402   0.66131   0.00000  Uiso   1.00
C48    C     0.87896   0.58330   0.72861   0.00000  Uiso   1.00
C49    C     0.86347   0.64897   0.76387   0.00000  Uiso   1.00
C50    C     0.87023   0.65592   0.82453   0.00000  Uiso   1.00
C51    C     0.87297   0.69448   0.92531   0.00000  Uiso   1.00
C52    C     0.95564   0.51735   0.63927   0.00000  Uiso   1.00
C53    C     0.00461   0.52757   0.59941   0.00000  Uiso   1.00
C54    C     0.07591   0.47901   0.58486   0.00000  Uiso   1.00
C55    C     0.19767   0.41516   0.54690   0.00000  Uiso   1.00
C56    C     0.81786   0.51985   0.64690   0.00000  Uiso   1.00
C57    C     0.75100   0.53216   0.61343   0.00000  Uiso   1.00
C58    C     0.70632   0.48569   0.60528   0.00000  Uiso   1.00
C59    C     0.61415   0.42573   0.57917   0.00000  Uiso   1.00
C60    C     0.91466   0.45960   0.70633   0.00000  Uiso   1.00
C61    C     0.90044   0.52658   0.75306   0.00000  Uiso   1.00
C62    C     0.90722   0.53343   0.81368   0.00000  Uiso   1.00
C63    C     0.89174   0.59910   0.84903   0.00000  Uiso   1.00
C64    C     0.97712   0.46063   0.66372   0.00000  Uiso   1.00
C65    C     0.04836   0.41204   0.64922   0.00000  Uiso   1.00
C66    C     0.09743   0.42219   0.60935   0.00000  Uiso   1.00
C67    C     0.83934   0.46313   0.67135   0.00000  Uiso   1.00
C68    C     0.79475   0.41663   0.66325   0.00000  Uiso   1.00
C69    C     0.72783   0.42887   0.62978   0.00000  Uiso   1.00
H70    H     0.85840   0.60818   0.64227   0.00000  Uiso   1.00
H71    H     0.84686   0.69285   0.74493   0.00000  Uiso   1.00
H72    H     0.98797   0.57147   0.58049   0.00000  Uiso   1.00
H73    H     0.73440   0.57606   0.59452   0.00000  Uiso   1.00
H74    H     0.84356   0.76171   0.86953   0.00000  Uiso   1.00
H75    H     0.14110   0.50576   0.52279   0.00000  Uiso   1.00
H76    H     0.60639   0.51544   0.55236   0.00000  Uiso   1.00
H77    H     0.93138   0.41543   0.72537   0.00000  Uiso   1.00
H78    H     0.92384   0.48953   0.83259   0.00000  Uiso   1.00
H79    H     0.06496   0.36815   0.66815   0.00000  Uiso   1.00
H80    H     0.81139   0.37274   0.68217   0.00000  Uiso   1.00
H81    H     0.90605   0.59669   0.94068   0.00000  Uiso   1.00
H82    H     0.20358   0.34074   0.59393   0.00000  Uiso   1.00
H83    H     0.66888   0.35042   0.62351   0.00000  Uiso   1.00
O84    O     0.86855   0.73142   0.97414   0.00000  Uiso   1.00
O85    O     0.25890   0.39562   0.51921   0.00000  Uiso   1.00
O86    O     0.55738   0.40832   0.55802   0.00000  Uiso   1.00
N87    N     0.85929   0.71270   0.87156   0.00000  Uiso   1.00
N88    N     0.13747   0.47341   0.54738   0.00000  Uiso   1.00
N89    N     0.63758   0.48245   0.57502   0.00000  Uiso   1.00
N90    N     0.89291   0.62390   0.90985   0.00000  Uiso   1.00
N91    N     0.17109   0.38462   0.58567   0.00000  Uiso   1.00
N92    N     0.67120   0.39366   0.61330   0.00000  Uiso   1.00
C93    C     0.39011   0.52294   0.87568   0.00000  Uiso   1.00
C94    C     0.36227   0.54517   0.81899   0.00000  Uiso   1.00
C95    C     0.29116   0.54260   0.79218   0.00000  Uiso   1.00
C96    C     0.27667   0.56528   0.74053   0.00000  Uiso   1.00
C97    C     0.22514   0.59605   0.65612   0.00000  Uiso   1.00
C98    C     0.46872   0.46997   0.85993   0.00000  Uiso   1.00
C99    C     0.48712   0.40419   0.86756   0.00000  Uiso   1.00
C100   C     0.56225   0.36358   0.85038   0.00000  Uiso   1.00
C101   C     0.67601   0.27763   0.82958   0.00000  Uiso   1.00
C102   C     0.40836   0.58441   0.91794   0.00000  Uiso   1.00
C103   C     0.37602   0.61484   0.97435   0.00000  Uiso   1.00
C104   C     0.40035   0.67057   0.00602   0.00000  Uiso   1.00
C105   C     0.42039   0.76230   0.07528   0.00000  Uiso   1.00
C106   C     0.49084   0.56778   0.83163   0.00000  Uiso   1.00
C107   C     0.41699   0.56952   0.79506   0.00000  Uiso   1.00
C108   C     0.40260   0.59221   0.74344   0.00000  Uiso   1.00
C109   C     0.33148   0.58968   0.71656   0.00000  Uiso   1.00
C110   C     0.52344   0.49433   0.83601   0.00000  Uiso   1.00
C111   C     0.59856   0.45380   0.81882   0.00000  Uiso   1.00
C112   C     0.61706   0.38798   0.82641   0.00000  Uiso   1.00
C113   C     0.46308   0.60877   0.89401   0.00000  Uiso   1.00
C114   C     0.48747   0.66445   0.92561   0.00000  Uiso   1.00
C115   C     0.45516   0.69497   0.98205   0.00000  Uiso   1.00
H116   H     0.34752   0.50398   0.89431   0.00000  Uiso   1.00
H117   H     0.24883   0.52374   0.81070   0.00000  Uiso   1.00
H118   H     0.44476   0.38536   0.88608   0.00000  Uiso   1.00
H119   H     0.33368   0.59598   0.99285   0.00000  Uiso   1.00
H120   H     0.16357   0.55638   0.70745   0.00000  Uiso   1.00
H121   H     0.57671   0.26460   0.86640   0.00000  Uiso   1.00
H122   H     0.34247   0.70873   0.09154   0.00000  Uiso   1.00
H123   H     0.53344   0.58674   0.81301   0.00000  Uiso   1.00
H124   H     0.44496   0.61105   0.72494   0.00000  Uiso   1.00
H125   H     0.64089   0.47267   0.80031   0.00000  Uiso   1.00
H126   H     0.52981   0.68329   0.90708   0.00000  Uiso   1.00
H127   H     0.32275   0.62723   0.63784   0.00000  Uiso   1.00
H128   H     0.73589   0.33546   0.79679   0.00000  Uiso   1.00
H129   H     0.50165   0.77958   0.02193   0.00000  Uiso   1.00
O130   O     0.18161   0.60628   0.61616   0.00000  Uiso   1.00
O131   O     0.72363   0.22349   0.82471   0.00000  Uiso   1.00
O132   O     0.41632   0.80617   0.12009   0.00000  Uiso   1.00
N133   N     0.21317   0.56973   0.70316   0.00000  Uiso   1.00
N134   N     0.59942   0.29693   0.85176   0.00000  Uiso   1.00
N135   N     0.38045   0.71214   0.06226   0.00000  Uiso   1.00
N136   N     0.29882   0.60786   0.66570   0.00000  Uiso   1.00
N137   N     0.68508   0.33506   0.81430   0.00000  Uiso   1.00
N138   N     0.46610   0.75027   0.02480   0.00000  Uiso   1.00
C139   C     0.14818   0.28339   0.33525   0.00000  Uiso   1.00
C140   C     0.12937   0.36074   0.35098   0.00000  Uiso   1.00
C141   C     0.08131   0.40419   0.39772   0.00000  Uiso   1.00
C142   C     0.07153   0.47335   0.40468   0.00000  Uiso   1.00
C143   C     0.03673   0.58969   0.43496   0.00000  Uiso   1.00
C144   C     0.23744   0.25780   0.33516   0.00000  Uiso   1.00
C145   C     0.28024   0.21469   0.36860   0.00000  Uiso   1.00
C146   C     0.36143   0.19719   0.36224   0.00000  Uiso   1.00
C147   C     0.49440   0.15367   0.36794   0.00000  Uiso   1.00
C148   C     0.12440   0.26287   0.27113   0.00000  Uiso   1.00
C149   C     0.07218   0.22399   0.25072   0.00000  Uiso   1.00
C150   C     0.05821   0.21075   0.19045   0.00000  Uiso   1.00
C151   C     0.01568   0.17510   0.09672   0.00000  Uiso   1.00
C152   C     0.21626   0.32897   0.26449   0.00000  Uiso   1.00
C153   C     0.16635   0.38550   0.31254   0.00000  Uiso   1.00
C154   C     0.15664   0.45462   0.31943   0.00000  Uiso   1.00
C155   C     0.10858   0.49816   0.36618   0.00000  Uiso   1.00
C156   C     0.27442   0.28256   0.29673   0.00000  Uiso   1.00
C157   C     0.35556   0.26512   0.29032   0.00000  Uiso   1.00
C158   C     0.39848   0.22199   0.32374   0.00000  Uiso   1.00
C159   C     0.16138   0.28763   0.23269   0.00000  Uiso   1.00
C160   C     0.14750   0.27443   0.17244   0.00000  Uiso   1.00
C161   C     0.09526   0.23555   0.15195   0.00000  Uiso   1.00
H162   H     0.11939   0.26411   0.36517   0.00000  Uiso   1.00
H163   H     0.05271   0.38500   0.42745   0.00000  Uiso   1.00
H164   H     0.25160   0.19553   0.39833   0.00000  Uiso   1.00
H165   H     0.04357   0.20484   0.28048   0.00000  Uiso   1.00
H166   H     0.99511   0.52995   0.47957   0.00000  Uiso   1.00
H167   H     0.41448   0.13042   0.41816   0.00000  Uiso   1.00
H168   H     0.97581   0.15005   0.16963   0.00000  Uiso   1.00
H169   H     0.24506   0.34825   0.23457   0.00000  Uiso   1.00
H170   H     0.18527   0.47376   0.28969   0.00000  Uiso   1.00
H171   H     0.38416   0.28428   0.26057   0.00000  Uiso   1.00
H172   H     0.17613   0.29360   0.14271   0.00000  Uiso   1.00
H173   H     0.10270   0.60199   0.36776   0.00000  Uiso   1.00
H174   H     0.52208   0.20245   0.30634   0.00000  Uiso   1.00
H175   H     0.08340   0.22209   0.05781   0.00000  Uiso   1.00
O176   O     0.00733   0.64702   0.46229   0.00000  Uiso   1.00
O177   O     0.55752   0.12283   0.38171   0.00000  Uiso   1.00
O178   O     0.98199   0.14860   0.05564   0.00000  Uiso   1.00
N179   N     0.02862   0.52968   0.44568   0.00000  Uiso   1.00
N180   N     0.42071   0.15615   0.38827   0.00000  Uiso   1.00
N181   N     0.01061   0.17449   0.15592   0.00000  Uiso   1.00
N182   N     0.08652   0.56845   0.38552   0.00000  Uiso   1.00
N183   N     0.47861   0.19491   0.32811   0.00000  Uiso   1.00
N184   N     0.06850   0.21326   0.09575   0.00000  Uiso   1.00
C185   C     0.98851   0.85087   0.64785   0.00000  Uiso   1.00
C186   C     0.92544   0.91507   0.67600   0.00000  Uiso   1.00
C187   C     0.85013   0.93511   0.65528   0.00000  Uiso   1.00
C188   C     0.80120   0.99551   0.68730   0.00000  Uiso   1.00
C189   C     0.69937   0.08925   0.72328   0.00000  Uiso   1.00
C190   C     0.01303   0.81218   0.69608   0.00000  Uiso   1.00
C191   C     0.01137   0.74571   0.69224   0.00000  Uiso   1.00
C192   C     0.03619   0.71950   0.74117   0.00000  Uiso   1.00
C193   C     0.07040   0.65349   0.80830   0.00000  Uiso   1.00
C194   C     0.05929   0.87445   0.63570   0.00000  Uiso   1.00
C195   C     0.09655   0.86033   0.58110   0.00000  Uiso   1.00
C196   C     0.16033   0.88653   0.57919   0.00000  Uiso   1.00
C197   C     0.26636   0.91721   0.55258   0.00000  Uiso   1.00
C198   C     0.03555   0.92249   0.74155   0.00000  Uiso   1.00
C199   C     0.95099   0.95396   0.72689   0.00000  Uiso   1.00
C200   C     0.90217   0.01435   0.75895   0.00000  Uiso   1.00
C201   C     0.82680   0.03448   0.73828   0.00000  Uiso   1.00
C202   C     0.03858   0.85108   0.74697   0.00000  Uiso   1.00
C203   C     0.06341   0.82495   0.79591   0.00000  Uiso   1.00
C204   C     0.06179   0.75847   0.79215   0.00000  Uiso   1.00
C205   C     0.08484   0.91335   0.68659   0.00000  Uiso   1.00
C206   C     0.14858   0.93957   0.68477   0.00000  Uiso   1.00
C207   C     0.18593   0.92550   0.63017   0.00000  Uiso   1.00
H208   H     0.96862   0.82058   0.60823   0.00000  Uiso   1.00
H209   H     0.83038   0.90499   0.61590   0.00000  Uiso   1.00
H210   H     0.99161   0.71562   0.65285   0.00000  Uiso   1.00
H211   H     0.07676   0.83022   0.54173   0.00000  Uiso   1.00
H212   H     0.68837   0.01571   0.64685   0.00000  Uiso   1.00
H213   H     0.02835   0.61641   0.72476   0.00000  Uiso   1.00
H214   H     0.20792   0.85807   0.49043   0.00000  Uiso   1.00
H215   H     0.05544   0.95278   0.78118   0.00000  Uiso   1.00
H216   H     0.92196   0.04444   0.79833   0.00000  Uiso   1.00
H217   H     0.08319   0.85507   0.83528   0.00000  Uiso   1.00
H218   H     0.16834   0.96968   0.72416   0.00000  Uiso   1.00
H219   H     0.76269   0.12889   0.79492   0.00000  Uiso   1.00
H220   H     0.10268   0.72959   0.87283   0.00000  Uiso   1.00
H221   H     0.28225   0.97126   0.63850   0.00000  Uiso   1.00
O222   O     0.63615   0.13020   0.72906   0.00000  Uiso   1.00
O223   O     0.08220   0.60633   0.83127   0.00000  Uiso   1.00
O224   O     0.31779   0.92339   0.52384   0.00000  Uiso   1.00
N225   N     0.72418   0.02977   0.67934   0.00000  Uiso   1.00
N226   N     0.04203   0.65645   0.75218   0.00000  Uiso   1.00
N227   N     0.20993   0.88237   0.53311   0.00000  Uiso   1.00
N228   N     0.76418   0.09068   0.75902   0.00000  Uiso   1.00
N229   N     0.08203   0.71736   0.83186   0.00000  Uiso   1.00
N230   N     0.24992   0.94328   0.61278   0.00000  Uiso   1.00
C231   C     0.48238   0.09063   0.77992   0.00000  Uiso   1.00
C232   C     0.46584   0.07384   0.71396   0.00000  Uiso   1.00
C233   C     0.47537   0.11071   0.67411   0.00000  Uiso   1.00
C234   C     0.45707   0.08701   0.61565   0.00000  Uiso   1.00
C235   C     0.43551   0.06981   0.51594   0.00000  Uiso   1.00
C236   C     0.54115   0.02753   0.79150   0.00000  Uiso   1.00
C237   C     0.61399   0.02546   0.81686   0.00000  Uiso   1.00
C238   C     0.65907   0.96278   0.82369   0.00000  Uiso   1.00
C239   C     0.75439   0.87369   0.84441   0.00000  Uiso   1.00
C240   C     0.40627   0.09674   0.81171   0.00000  Uiso   1.00
C241   C     0.36572   0.15287   0.85407   0.00000  Uiso   1.00
C242   C     0.29725   0.14845   0.87792   0.00000  Uiso   1.00
C243   C     0.18317   0.16683   0.93003   0.00000  Uiso   1.00
C244   C     0.43291   0.98297   0.74697   0.00000  Uiso   1.00
C245   C     0.43897   0.01536   0.69606   0.00000  Uiso   1.00
C246   C     0.42064   0.99159   0.63765   0.00000  Uiso   1.00
C247   C     0.43015   0.02842   0.59772   0.00000  Uiso   1.00
C248   C     0.51428   0.96905   0.77361   0.00000  Uiso   1.00
C249   C     0.55926   0.90635   0.78040   0.00000  Uiso   1.00
C250   C     0.63215   0.90419   0.80576   0.00000  Uiso   1.00
C251   C     0.37940   0.03826   0.79381   0.00000  Uiso   1.00
C252   C     0.31099   0.03375   0.81761   0.00000  Uiso   1.00
C253   C     0.27034   0.08986   0.85999   0.00000  Uiso   1.00
H254   H     0.50331   0.13615   0.79386   0.00000  Uiso   1.00
H255   H     0.49618   0.15596   0.68797   0.00000  Uiso   1.00
H256   H     0.63476   0.07073   0.83071   0.00000  Uiso   1.00
H257   H     0.38653   0.19811   0.86791   0.00000  Uiso   1.00
H258   H     0.47645   0.15211   0.56269   0.00000  Uiso   1.00
H259   H     0.76866   0.97240   0.86367   0.00000  Uiso   1.00
H260   H     0.24522   0.24102   0.94212   0.00000  Uiso   1.00
H261   H     0.41200   0.93744   0.73303   0.00000  Uiso   1.00
H262   H     0.39985   0.94634   0.62381   0.00000  Uiso   1.00
H263   H     0.53844   0.86111   0.76655   0.00000  Uiso   1.00
H264   H     0.29021   0.98849   0.80375   0.00000  Uiso   1.00
H265   H     0.39827   0.98197   0.51061   0.00000  Uiso   1.00
H266   H     0.69048   0.80227   0.81160   0.00000  Uiso   1.00
H267   H     0.16704   0.07088   0.89005   0.00000  Uiso   1.00
O268   O     0.43105   0.07647   0.46589   0.00000  Uiso   1.00
O269   O     0.81440   0.84071   0.86079   0.00000  Uiso   1.00
O270   O     0.12766   0.19312   0.96371   0.00000  Uiso   1.00
N271   N     0.45970   0.11086   0.56542   0.00000  Uiso   1.00
N272   N     0.73290   0.94284   0.84682   0.00000  Uiso   1.00
N273   N     0.24354   0.19397   0.92017   0.00000  Uiso   1.00
N274   N     0.41763   0.01931   0.53740   0.00000  Uiso   1.00
N275   N     0.69084   0.85129   0.81879   0.00000  Uiso   1.00
N276   N     0.20147   0.10242   0.89215   0.00000  Uiso   1.00
C277   C     0.86809   0.18308   0.56787   0.00000  Uiso   1.00
C278   C     0.94247   0.13369   0.53658   0.00000  Uiso   1.00
C279   C     0.95084   0.06595   0.50842   0.00000  Uiso   1.00
C280   C     0.02360   0.02929   0.48241   0.00000  Uiso   1.00
C281   C     0.12963   0.94803   0.43348   0.00000  Uiso   1.00
C282   C     0.84887   0.24290   0.53875   0.00000  Uiso   1.00
C283   C     0.77855   0.26700   0.51242   0.00000  Uiso   1.00
C284   C     0.77253   0.32229   0.48825   0.00000  Uiso   1.00
C285   C     0.73324   0.41063   0.44273   0.00000  Uiso   1.00
C286   C     0.89128   0.21056   0.63095   0.00000  Uiso   1.00
C287   C     0.85660   0.20749   0.68214   0.00000  Uiso   1.00
C288   C     0.88627   0.23555   0.73560   0.00000  Uiso   1.00
C289   C     0.91282   0.27367   0.83323   0.00000  Uiso   1.00
C290   C     0.98243   0.23841   0.57177   0.00000  Uiso   1.00
C291   C     0.00457   0.16374   0.53870   0.00000  Uiso   1.00
C292   C     0.07735   0.12717   0.51273   0.00000  Uiso   1.00
C293   C     0.08582   0.05939   0.48454   0.00000  Uiso   1.00
C294   C     0.91098   0.27296   0.54087   0.00000  Uiso   1.00
C295   C     0.90506   0.32822   0.51674   0.00000  Uiso   1.00
C296   C     0.83475   0.35240   0.49037   0.00000  Uiso   1.00
C297   C     0.95339   0.24062   0.63307   0.00000  Uiso   1.00
C298   C     0.98311   0.26870   0.68646   0.00000  Uiso   1.00
C299   C     0.94849   0.26566   0.73772   0.00000  Uiso   1.00
H300   H     0.81973   0.15968   0.56622   0.00000  Uiso   1.00
H301   H     0.90276   0.04271   0.50678   0.00000  Uiso   1.00
H302   H     0.73050   0.24374   0.51079   0.00000  Uiso   1.00
H303   H     0.80854   0.18422   0.68048   0.00000  Uiso   1.00
H304   H     0.02218   0.92630   0.44180   0.00000  Uiso   1.00
H305   H     0.65896   0.35018   0.45027   0.00000  Uiso   1.00
H306   H     0.82352   0.22468   0.80811   0.00000  Uiso   1.00
H307   H     0.03079   0.26181   0.57342   0.00000  Uiso   1.00
H308   H     0.12540   0.15044   0.51438   0.00000  Uiso   1.00
H309   H     0.95313   0.35147   0.51839   0.00000  Uiso   1.00
H310   H     0.03118   0.29195   0.68808   0.00000  Uiso   1.00
H311   H     0.20289   0.01373   0.44796   0.00000  Uiso   1.00
H312   H     0.83965   0.43762   0.45644   0.00000  Uiso   1.00
H313   H     0.00422   0.31212   0.81427   0.00000  Uiso   1.00
O314   O     0.17096   0.89492   0.40589   0.00000  Uiso   1.00
O315   O     0.69441   0.45104   0.41702   0.00000  Uiso   1.00
O316   O     0.91031   0.28639   0.88649   0.00000  Uiso   1.00
N317   N     0.05173   0.96215   0.45136   0.00000  Uiso   1.00
N318   N     0.71214   0.35845   0.45928   0.00000  Uiso   1.00
N319   N     0.86598   0.24114   0.79382   0.00000  Uiso   1.00
N320   N     0.14897   0.00920   0.45468   0.00000  Uiso   1.00
N321   N     0.80937   0.40550   0.46259   0.00000  Uiso   1.00
N322   N     0.96321   0.28819   0.79714   0.00000  Uiso   1.00
C323   C     0.69598   0.29040   0.17365   0.00000  Uiso   1.00
C324   C     0.73296   0.27330   0.11202   0.00000  Uiso   1.00
C325   C     0.73744   0.21400   0.06868   0.00000  Uiso   1.00
C326   C     0.77355   0.20802   0.01520   0.00000  Uiso   1.00
C327   C     0.82630   0.17364   0.92096   0.00000  Uiso   1.00
C328   C     0.63371   0.35783   0.17961   0.00000  Uiso   1.00
C329   C     0.55473   0.36960   0.19312   0.00000  Uiso   1.00
C330   C     0.50729   0.43479   0.19654   0.00000  Uiso   1.00
C331   C     0.40595   0.53166   0.20728   0.00000  Uiso   1.00
C332   C     0.75976   0.30508   0.21704   0.00000  Uiso   1.00
C333   C     0.78677   0.27251   0.26204   0.00000  Uiso   1.00
C334   C     0.84545   0.29330   0.29699   0.00000  Uiso   1.00
C335   C     0.93983   0.30826   0.36585   0.00000  Uiso   1.00
C336   C     0.75215   0.38524   0.15572   0.00000  Uiso   1.00
C337   C     0.76347   0.32481   0.10227   0.00000  Uiso   1.00
C338   C     0.79959   0.31892   0.04884   0.00000  Uiso   1.00
C339   C     0.80412   0.25962   0.00543   0.00000  Uiso   1.00
C340   C     0.66421   0.40934   0.16987   0.00000  Uiso   1.00
C341   C     0.61688   0.47453   0.17327   0.00000  Uiso   1.00
C342   C     0.53785   0.48640   0.18678   0.00000  Uiso   1.00
C343   C     0.79028   0.35659   0.20730   0.00000  Uiso   1.00
C344   C     0.84892   0.37744   0.24219   0.00000  Uiso   1.00
C345   C     0.87601   0.34490   0.28723   0.00000  Uiso   1.00
H346   H     0.67223   0.25030   0.18124   0.00000  Uiso   1.00
H347   H     0.71382   0.17415   0.07624   0.00000  Uiso   1.00
H348   H     0.53114   0.32973   0.20066   0.00000  Uiso   1.00
H349   H     0.76315   0.23265   0.26957   0.00000  Uiso   1.00
H350   H     0.77336   0.11244   0.95552   0.00000  Uiso   1.00
H351   H     0.38818   0.44050   0.21789   0.00000  Uiso   1.00
H352   H     0.87740   0.23580   0.36319   0.00000  Uiso   1.00
H353   H     0.77591   0.42535   0.14813   0.00000  Uiso   1.00
H354   H     0.82319   0.35880   0.04131   0.00000  Uiso   1.00
H355   H     0.64051   0.51438   0.16573   0.00000  Uiso   1.00
H356   H     0.87252   0.41730   0.23464   0.00000  Uiso   1.00
H357   H     0.86213   0.26231   0.92717   0.00000  Uiso   1.00
H358   H     0.47694   0.59038   0.18954   0.00000  Uiso   1.00
H359   H     0.96617   0.38566   0.33484   0.00000  Uiso   1.00
O360   O     0.84695   0.14045   0.87167   0.00000  Uiso   1.00
O361   O     0.34161   0.57085   0.21590   0.00000  Uiso   1.00
O362   O     0.98347   0.30228   0.40653   0.00000  Uiso   1.00
N363   N     0.78777   0.15684   0.96351   0.00000  Uiso   1.00
N364   N     0.42765   0.46356   0.20880   0.00000  Uiso   1.00
N365   N     0.88502   0.27218   0.34466   0.00000  Uiso   1.00
N366   N     0.83554   0.23748   0.94826   0.00000  Uiso   1.00
N367   N     0.47542   0.54420   0.19355   0.00000  Uiso   1.00
N368   N     0.93279   0.35283   0.32940   0.00000  Uiso   1.00
C369   C     0.22807   0.44914   0.97074   0.00000  Uiso   1.00
C370   C     0.26178   0.39909   0.00888   0.00000  Uiso   1.00
C371   C     0.33262   0.39330   0.03792   0.00000  Uiso   1.00
C372   C     0.35302   0.34436   0.07061   0.00000  Uiso   1.00
C373   C     0.41275   0.27300   0.12932   0.00000  Uiso   1.00
C374   C     0.14709   0.48947   0.99731   0.00000  Uiso   1.00
C375   C     0.12150   0.55966   0.01661   0.00000  Uiso   1.00
C376   C     0.04536   0.58680   0.03955   0.00000  Uiso   1.00
C377   C     0.92702   0.65575   0.08027   0.00000  Uiso   1.00
C378   C     0.21385   0.40638   0.91042   0.00000  Uiso   1.00
C379   C     0.24437   0.40674   0.85667   0.00000  Uiso   1.00
C380   C     0.22441   0.36394   0.80645   0.00000  Uiso   1.00
C381   C     0.20971   0.30389   0.71227   0.00000  Uiso   1.00
C382   C     0.13834   0.37254   0.97715   0.00000  Uiso   1.00
C383   C     0.21303   0.35748   0.01236   0.00000  Uiso   1.00
C384   C     0.23334   0.30854   0.04501   0.00000  Uiso   1.00
C385   C     0.30419   0.30268   0.07409   0.00000  Uiso   1.00
C386   C     0.09835   0.44786   0.00079   0.00000  Uiso   1.00
C387   C     0.02223   0.47491   0.02370   0.00000  Uiso   1.00
C388   C     0.99653   0.54512   0.04304   0.00000  Uiso   1.00
C389   C     0.16511   0.36477   0.91390   0.00000  Uiso   1.00
C390   C     0.14509   0.32198   0.86376   0.00000  Uiso   1.00
C391   C     0.17558   0.32226   0.80994   0.00000  Uiso   1.00
H392   H     0.26601   0.48154   0.96803   0.00000  Uiso   1.00
H393   H     0.37031   0.42551   0.03522   0.00000  Uiso   1.00
H394   H     0.15923   0.59184   0.01391   0.00000  Uiso   1.00
H395   H     0.28208   0.43894   0.85399   0.00000  Uiso   1.00
H396   H     0.46444   0.34506   0.11126   0.00000  Uiso   1.00
H397   H     0.01936   0.69579   0.06631   0.00000  Uiso   1.00
H398   H     0.27840   0.37336   0.72909   0.00000  Uiso   1.00
H399   H     0.10039   0.34015   0.97986   0.00000  Uiso   1.00
H400   H     0.19561   0.27635   0.04770   0.00000  Uiso   1.00
H401   H     0.98453   0.44269   0.02639   0.00000  Uiso   1.00
H402   H     0.10737   0.28979   0.86647   0.00000  Uiso   1.00
H403   H     0.32264   0.22400   0.12139   0.00000  Uiso   1.00
H404   H     0.87756   0.57473   0.07644   0.00000  Uiso   1.00
H405   H     0.13660   0.25230   0.73923   0.00000  Uiso   1.00
O406   O     0.45916   0.24513   0.16076   0.00000  Uiso   1.00
O407   O     0.87522   0.70527   0.10177   0.00000  Uiso   1.00
O408   O     0.21508   0.28225   0.65935   0.00000  Uiso   1.00
N409   N     0.41801   0.32531   0.10433   0.00000  Uiso   1.00
N410   N     0.00189   0.65322   0.06231   0.00000  Uiso   1.00
N411   N     0.24406   0.35179   0.74704   0.00000  Uiso   1.00
N412   N     0.34171   0.26017   0.10978   0.00000  Uiso   1.00
N413   N     0.92559   0.58808   0.06776   0.00000  Uiso   1.00
N414   N     0.16775   0.28665   0.75249   0.00000  Uiso   1.00
C415   C     0.46681   0.61953   0.43745   0.00000  Uiso   1.00
C416   C     0.48331   0.54232   0.42152   0.00000  Uiso   1.00
C417   C     0.52745   0.49838   0.37300   0.00000  Uiso   1.00
C418   C     0.53566   0.42945   0.36617   0.00000  Uiso   1.00
C419   C     0.56654   0.31322   0.33530   0.00000  Uiso   1.00
C420   C     0.37768   0.64707   0.44136   0.00000  Uiso   1.00
C421   C     0.33302   0.69120   0.40953   0.00000  Uiso   1.00
C422   C     0.25231   0.71045   0.41941   0.00000  Uiso   1.00
C423   C     0.11920   0.75689   0.41938   0.00000  Uiso   1.00
C424   C     0.49562   0.63886   0.50028   0.00000  Uiso   1.00
C425   C     0.55010   0.67610   0.51798   0.00000  Uiso   1.00
C426   C     0.56867   0.68846   0.57747   0.00000  Uiso   1.00
C427   C     0.61868   0.72214   0.66890   0.00000  Uiso   1.00
C428   C     0.40290   0.57525   0.51161   0.00000  Uiso   1.00
C429   C     0.44860   0.51827   0.46180   0.00000  Uiso   1.00
C430   C     0.45674   0.44939   0.45505   0.00000  Uiso   1.00
C431   C     0.50089   0.40535   0.40653   0.00000  Uiso   1.00
C432   C     0.34297   0.62302   0.48164   0.00000  Uiso   1.00
C433   C     0.26231   0.64221   0.49158   0.00000  Uiso   1.00
C434   C     0.21753   0.68636   0.45976   0.00000  Uiso   1.00
C435   C     0.46091   0.61480   0.54056   0.00000  Uiso   1.00
C436   C     0.47940   0.62711   0.60003   0.00000  Uiso   1.00
C437   C     0.53390   0.66436   0.61782   0.00000  Uiso   1.00
H438   H     0.49383   0.63826   0.40609   0.00000  Uiso   1.00
H439   H     0.55430   0.51701   0.34184   0.00000  Uiso   1.00
H440   H     0.35990   0.70981   0.37837   0.00000  Uiso   1.00
H441   H     0.57695   0.69471   0.48680   0.00000  Uiso   1.00
H442   H     0.60601   0.37199   0.28835   0.00000  Uiso   1.00
H443   H     0.19611   0.77853   0.36539   0.00000  Uiso   1.00
H444   H     0.65381   0.74669   0.59404   0.00000  Uiso   1.00
H445   H     0.37587   0.55652   0.54297   0.00000  Uiso   1.00
H446   H     0.42987   0.43079   0.48622   0.00000  Uiso   1.00
H447   H     0.23547   0.62359   0.52275   0.00000  Uiso   1.00
H448   H     0.45252   0.60849   0.63118   0.00000  Uiso   1.00
H449   H     0.50502   0.30200   0.40554   0.00000  Uiso   1.00
H450   H     0.09511   0.70855   0.48258   0.00000  Uiso   1.00
H451   H     0.55281   0.67670   0.71123   0.00000  Uiso   1.00
O452   O     0.59315   0.25576   0.30714   0.00000  Uiso   1.00
O453   O     0.05537   0.78914   0.40822   0.00000  Uiso   1.00
O454   O     0.65586   0.74736   0.70820   0.00000  Uiso   1.00
N455   N     0.57485   0.37277   0.32373   0.00000  Uiso   1.00
N456   N     0.19161   0.75286   0.39575   0.00000  Uiso   1.00
N457   N     0.61950   0.72310   0.60952   0.00000  Uiso   1.00
N458   N     0.52050   0.33511   0.38678   0.00000  Uiso   1.00
N459   N     0.13726   0.71520   0.45881   0.00000  Uiso   1.00
N460   N     0.56516   0.68544   0.67258   0.00000  Uiso   1.00
C461   C     0.62590   0.05150   0.14179   0.00000  Uiso   1.00
C462   C     0.69789   0.99155   0.12283   0.00000  Uiso   1.00
C463   C     0.77135   0.98521   0.14794   0.00000  Uiso   1.00
C464   C     0.82954   0.92649   0.12427   0.00000  Uiso   1.00
C465   C     0.94359   0.84110   0.10196   0.00000  Uiso   1.00
C466   C     0.59952   0.07746   0.08653   0.00000  Uiso   1.00
C467   C     0.59026   0.14335   0.08113   0.00000  Uiso   1.00
C468   C     0.56563   0.15694   0.02691   0.00000  Uiso   1.00
C469   C     0.52691   0.20493   0.94828   0.00000  Uiso   1.00
C470   C     0.56158   0.02176   0.15661   0.00000  Uiso   1.00
C471   C     0.52041   0.04082   0.21012   0.00000  Uiso   1.00
C472   C     0.46383   0.00753   0.21489   0.00000  Uiso   1.00
C473   C     0.36620   0.96904   0.24505   0.00000  Uiso   1.00
C474   C     0.59861   0.95848   0.05511   0.00000  Uiso   1.00
C475   C     0.68307   0.94103   0.07574   0.00000  Uiso   1.00
C476   C     0.74116   0.88230   0.05203   0.00000  Uiso   1.00
C477   C     0.81469   0.87587   0.07710   0.00000  Uiso   1.00
C478   C     0.58470   0.02694   0.03945   0.00000  Uiso   1.00
C479   C     0.56008   0.04043   0.98523   0.00000  Uiso   1.00
C480   C     0.55079   0.10632   0.97975   0.00000  Uiso   1.00
C481   C     0.54677   0.97123   0.10953   0.00000  Uiso   1.00
C482   C     0.49023   0.93790   0.11421   0.00000  Uiso   1.00
C483   C     0.44898   0.95691   0.16772   0.00000  Uiso   1.00
H484   H     0.63743   0.09084   0.17844   0.00000  Uiso   1.00
H485   H     0.78279   0.02433   0.18437   0.00000  Uiso   1.00
H486   H     0.60173   0.18244   0.11758   0.00000  Uiso   1.00
H487   H     0.53189   0.07992   0.24654   0.00000  Uiso   1.00
H488   H     0.93742   0.92832   0.17016   0.00000  Uiso   1.00
H489   H     0.55561   0.26170   0.02933   0.00000  Uiso   1.00
H490   H     0.40835   0.04554   0.30128   0.00000  Uiso   1.00
H491   H     0.58708   0.91915   0.01845   0.00000  Uiso   1.00
H492   H     0.72968   0.84321   0.01560   0.00000  Uiso   1.00
H493   H     0.54861   0.00132   0.94881   0.00000  Uiso   1.00
H494   H     0.47878   0.89881   0.07777   0.00000  Uiso   1.00
H495   H     0.89432   0.78131   0.03318   0.00000  Uiso   1.00
H496   H     0.51250   0.11470   0.89235   0.00000  Uiso   1.00
H497   H     0.36524   0.89854   0.16429   0.00000  Uiso   1.00
O498   O     0.01059   0.80797   0.10266   0.00000  Uiso   1.00
O499   O     0.50966   0.24536   0.91791   0.00000  Uiso   1.00
O500   O     0.31645   0.96176   0.27469   0.00000  Uiso   1.00
N501   N     0.90770   0.90413   0.13832   0.00000  Uiso   1.00
N502   N     0.55075   0.21583   0.00665   0.00000  Uiso   1.00
N503   N     0.41305   0.01375   0.26089   0.00000  Uiso   1.00
N504   N     0.88451   0.82503   0.06461   0.00000  Uiso   1.00
N505   N     0.52755   0.13673   0.93295   0.00000  Uiso   1.00
N506   N     0.38985   0.93464   0.18718   0.00000  Uiso   1.00
C507   C     0.15954   0.79936   0.99373   0.00000  Uiso   1.00
C508   C     0.18374   0.81155   0.05826   0.00000  Uiso   1.00
C509   C     0.18894   0.76715   0.09454   0.00000  Uiso   1.00
C510   C     0.21214   0.78767   0.15224   0.00000  Uiso   1.00
C511   C     0.24703   0.79708   0.24931   0.00000  Uiso   1.00
C512   C     0.09003   0.85942   0.99008   0.00000  Uiso   1.00
C513   C     0.01645   0.85525   0.96901   0.00000  Uiso   1.00
C514   C     0.96076   0.91606   0.96931   0.00000  Uiso   1.00
C515   C     0.85019   0.99978   0.96049   0.00000  Uiso   1.00
C516   C     0.22674   0.80619   0.95887   0.00000  Uiso   1.00
C517   C     0.26809   0.75729   0.91156   0.00000  Uiso   1.00
C518   C     0.32750   0.77329   0.88558   0.00000  Uiso   1.00
C519   C     0.42919   0.77437   0.82830   0.00000  Uiso   1.00
C520   C     0.19149   0.91475   0.03170   0.00000  Uiso   1.00
C521   C     0.20109   0.87423   0.07888   0.00000  Uiso   1.00
C522   C     0.22429   0.89482   0.13655   0.00000  Uiso   1.00
C523   C     0.22953   0.85045   0.17290   0.00000  Uiso   1.00
C524   C     0.10738   0.92209   0.01070   0.00000  Uiso   1.00
C525   C     0.05180   0.98292   0.01102   0.00000  Uiso   1.00
C526   C     0.97815   0.97885   0.98997   0.00000  Uiso   1.00
C527   C     0.24410   0.86887   0.97950   0.00000  Uiso   1.00
C528   C     0.30344   0.88495   0.95358   0.00000  Uiso   1.00
C529   C     0.34488   0.83608   0.90624   0.00000  Uiso   1.00
H530   H     0.14603   0.75057   0.97767   0.00000  Uiso   1.00
H531   H     0.17550   0.71866   0.07856   0.00000  Uiso   1.00
H532   H     0.00304   0.80675   0.95305   0.00000  Uiso   1.00
H533   H     0.25465   0.70880   0.89562   0.00000  Uiso   1.00
H534   H     0.21580   0.71093   0.19952   0.00000  Uiso   1.00
H535   H     0.85216   0.89666   0.93486   0.00000  Uiso   1.00
H536   H     0.38273   0.69012   0.81373   0.00000  Uiso   1.00
H537   H     0.20500   0.96355   0.04776   0.00000  Uiso   1.00
H538   H     0.23771   0.94332   0.15249   0.00000  Uiso   1.00
H539   H     0.06525   0.03141   0.02698   0.00000  Uiso   1.00
H540   H     0.31686   0.93346   0.96955   0.00000  Uiso   1.00
H541   H     0.26629   0.89327   0.25952   0.00000  Uiso   1.00
H542   H     0.90265   0.07901   0.99486   0.00000  Uiso   1.00
H543   H     0.43322   0.87246   0.87374   0.00000  Uiso   1.00
O544   O     0.26147   0.78496   0.29716   0.00000  Uiso   1.00
O545   O     0.78440   0.02864   0.94993   0.00000  Uiso   1.00
O546   O     0.48050   0.75765   0.79102   0.00000  Uiso   1.00
N547   N     0.22321   0.75661   0.19926   0.00000  Uiso   1.00
N548   N     0.88323   0.93026   0.95183   0.00000  Uiso   1.00
N549   N     0.37925   0.73717   0.83858   0.00000  Uiso   1.00
N550   N     0.25038   0.85473   0.23155   0.00000  Uiso   1.00
N551   N     0.91040   0.02838   0.98412   0.00000  Uiso   1.00
N552   N     0.40642   0.83529   0.87087   0.00000  Uiso   1.00
