data_job_05210
_audit_creation_date              2018-12-19
_audit_creation_method            'Materials Studio'
_symmetry_space_group_name_H-M    'P1'
_symmetry_Int_Tables_number       1
_symmetry_cell_setting            triclinic
loop_
_symmetry_equiv_pos_as_xyz
  x,y,z
_cell_length_a                    14.4144
_cell_length_b                    19.3934
_cell_length_c                    21.8574
_cell_angle_alpha                 90.0000
_cell_angle_beta                  87.2874
_cell_angle_gamma                 90.0000
loop_
_atom_site_label
_atom_site_type_symbol
_atom_site_fract_x
_atom_site_fract_y
_atom_site_fract_z
_atom_site_U_iso_or_equiv
_atom_site_adp_type
_atom_site_occupancy
C1     C     0.27253   0.15731   0.29125   0.00000  Uiso   1.00
C2     C     0.18641   0.13440   0.32909   0.00000  Uiso   1.00
C3     C     0.16070   0.06666   0.34140   0.00000  Uiso   1.00
C4     C     0.07943   0.05646   0.37689   0.00000  Uiso   1.00
C5     C     0.95382   0.01242   0.43222   0.00000  Uiso   1.00
C6     C     0.23760   0.20281   0.24030   0.00000  Uiso   1.00
C7     C     0.25495   0.19260   0.17796   0.00000  Uiso   1.00
C8     C     0.21678   0.24000   0.13872   0.00000  Uiso   1.00
C9     C     0.17071   0.30221   0.05621   0.00000  Uiso   1.00
C10    C     0.32600   0.20485   0.33256   0.00000  Uiso   1.00
C11    C     0.41768   0.19637   0.34779   0.00000  Uiso   1.00
C12    C     0.45394   0.24549   0.38622   0.00000  Uiso   1.00
C13    C     0.54512   0.31087   0.44695   0.00000  Uiso   1.00
C14    C     0.17391   0.25964   0.33241   0.00000  Uiso   1.00
C15    C     0.13284   0.18998   0.35144   0.00000  Uiso   1.00
C16    C     0.05158   0.17988   0.38693   0.00000  Uiso   1.00
C17    C     0.02576   0.11214   0.39929   0.00000  Uiso   1.00
C18    C     0.18403   0.25839   0.26265   0.00000  Uiso   1.00
C19    C     0.14583   0.30582   0.22350   0.00000  Uiso   1.00
C20    C     0.16311   0.29568   0.16112   0.00000  Uiso   1.00
C21    C     0.27243   0.26044   0.35492   0.00000  Uiso   1.00
C22    C     0.30856   0.30959   0.39333   0.00000  Uiso   1.00
C23    C     0.40028   0.30118   0.40861   0.00000  Uiso   1.00
H24    H     0.31424   0.11404   0.27384   0.00000  Uiso   1.00
H25    H     0.20217   0.02366   0.32408   0.00000  Uiso   1.00
H26    H     0.29642   0.14959   0.16067   0.00000  Uiso   1.00
H27    H     0.45912   0.15335   0.33048   0.00000  Uiso   1.00
H28    H     0.05429   0.94797   0.38962   0.00000  Uiso   1.00
H29    H     0.25303   0.21351   0.04507   0.00000  Uiso   1.00
H30    H     0.59612   0.22145   0.40313   0.00000  Uiso   1.00
H31    H     0.13220   0.30292   0.34981   0.00000  Uiso   1.00
H32    H     0.01014   0.22290   0.40423   0.00000  Uiso   1.00
H33    H     0.10438   0.34883   0.24082   0.00000  Uiso   1.00
H34    H     0.26708   0.35259   0.41062   0.00000  Uiso   1.00
H35    H     0.89842   0.10968   0.45467   0.00000  Uiso   1.00
H36    H     0.09717   0.37522   0.11011   0.00000  Uiso   1.00
H37    H     0.44026   0.38315   0.46818   0.00000  Uiso   1.00
O38    O     0.89933   0.97277   0.45655   0.00000  Uiso   1.00
O39    O     0.16009   0.32116   0.00451   0.00000  Uiso   1.00
O40    O     0.61021   0.33157   0.47429   0.00000  Uiso   1.00
N41    N     0.03436   0.99701   0.39747   0.00000  Uiso   1.00
N42    N     0.22016   0.24526   0.07534   0.00000  Uiso   1.00
N43    N     0.54093   0.25270   0.41008   0.00000  Uiso   1.00
N44    N     0.95050   0.08402   0.43248   0.00000  Uiso   1.00
N45    N     0.13630   0.33228   0.11034   0.00000  Uiso   1.00
N46    N     0.45706   0.33971   0.44508   0.00000  Uiso   1.00
C47    C     0.77253   0.65731   0.29125   0.00000  Uiso   1.00
C48    C     0.68641   0.63440   0.32909   0.00000  Uiso   1.00
C49    C     0.66070   0.56666   0.34140   0.00000  Uiso   1.00
C50    C     0.57943   0.55646   0.37689   0.00000  Uiso   1.00
C51    C     0.45382   0.51242   0.43222   0.00000  Uiso   1.00
C52    C     0.73760   0.70281   0.24030   0.00000  Uiso   1.00
C53    C     0.75495   0.69260   0.17796   0.00000  Uiso   1.00
C54    C     0.71678   0.74000   0.13872   0.00000  Uiso   1.00
C55    C     0.67071   0.80221   0.05621   0.00000  Uiso   1.00
C56    C     0.82600   0.70485   0.33256   0.00000  Uiso   1.00
C57    C     0.91768   0.69637   0.34779   0.00000  Uiso   1.00
C58    C     0.95394   0.74549   0.38622   0.00000  Uiso   1.00
C59    C     0.04512   0.81087   0.44695   0.00000  Uiso   1.00
C60    C     0.67391   0.75964   0.33241   0.00000  Uiso   1.00
C61    C     0.63284   0.68998   0.35144   0.00000  Uiso   1.00
C62    C     0.55158   0.67988   0.38693   0.00000  Uiso   1.00
C63    C     0.52576   0.61214   0.39929   0.00000  Uiso   1.00
C64    C     0.68403   0.75839   0.26265   0.00000  Uiso   1.00
C65    C     0.64583   0.80582   0.22350   0.00000  Uiso   1.00
C66    C     0.66311   0.79568   0.16112   0.00000  Uiso   1.00
C67    C     0.77243   0.76044   0.35492   0.00000  Uiso   1.00
C68    C     0.80856   0.80959   0.39333   0.00000  Uiso   1.00
C69    C     0.90028   0.80118   0.40861   0.00000  Uiso   1.00
H70    H     0.81424   0.61404   0.27384   0.00000  Uiso   1.00
H71    H     0.70217   0.52366   0.32408   0.00000  Uiso   1.00
H72    H     0.79642   0.64959   0.16067   0.00000  Uiso   1.00
H73    H     0.95912   0.65335   0.33048   0.00000  Uiso   1.00
H74    H     0.55429   0.44797   0.38962   0.00000  Uiso   1.00
H75    H     0.75303   0.71351   0.04507   0.00000  Uiso   1.00
H76    H     0.09612   0.72145   0.40313   0.00000  Uiso   1.00
H77    H     0.63220   0.80292   0.34981   0.00000  Uiso   1.00
H78    H     0.51014   0.72290   0.40423   0.00000  Uiso   1.00
H79    H     0.60438   0.84883   0.24082   0.00000  Uiso   1.00
H80    H     0.76708   0.85259   0.41062   0.00000  Uiso   1.00
H81    H     0.39842   0.60968   0.45467   0.00000  Uiso   1.00
H82    H     0.59717   0.87522   0.11011   0.00000  Uiso   1.00
H83    H     0.94026   0.88315   0.46818   0.00000  Uiso   1.00
O84    O     0.39933   0.47277   0.45655   0.00000  Uiso   1.00
O85    O     0.66009   0.82116   0.00451   0.00000  Uiso   1.00
O86    O     0.11021   0.83157   0.47429   0.00000  Uiso   1.00
N87    N     0.53436   0.49701   0.39747   0.00000  Uiso   1.00
N88    N     0.72016   0.74526   0.07534   0.00000  Uiso   1.00
N89    N     0.04093   0.75270   0.41008   0.00000  Uiso   1.00
N90    N     0.45050   0.58402   0.43248   0.00000  Uiso   1.00
N91    N     0.63630   0.83228   0.11034   0.00000  Uiso   1.00
N92    N     0.95706   0.83971   0.44508   0.00000  Uiso   1.00
C93    C     0.72747   0.15731   0.20875   0.00000  Uiso   1.00
C94    C     0.81359   0.13440   0.17091   0.00000  Uiso   1.00
C95    C     0.83930   0.06666   0.15860   0.00000  Uiso   1.00
C96    C     0.92057   0.05646   0.12311   0.00000  Uiso   1.00
C97    C     0.04618   0.01242   0.06778   0.00000  Uiso   1.00
C98    C     0.76240   0.20281   0.25970   0.00000  Uiso   1.00
C99    C     0.74505   0.19260   0.32204   0.00000  Uiso   1.00
C100   C     0.78322   0.24000   0.36128   0.00000  Uiso   1.00
C101   C     0.82929   0.30221   0.44379   0.00000  Uiso   1.00
C102   C     0.67400   0.20485   0.16744   0.00000  Uiso   1.00
C103   C     0.58232   0.19637   0.15221   0.00000  Uiso   1.00
C104   C     0.54606   0.24549   0.11378   0.00000  Uiso   1.00
C105   C     0.45488   0.31087   0.05305   0.00000  Uiso   1.00
C106   C     0.82609   0.25964   0.16759   0.00000  Uiso   1.00
C107   C     0.86716   0.18998   0.14856   0.00000  Uiso   1.00
C108   C     0.94842   0.17988   0.11307   0.00000  Uiso   1.00
C109   C     0.97424   0.11214   0.10071   0.00000  Uiso   1.00
C110   C     0.81597   0.25839   0.23735   0.00000  Uiso   1.00
C111   C     0.85417   0.30582   0.27650   0.00000  Uiso   1.00
C112   C     0.83689   0.29568   0.33888   0.00000  Uiso   1.00
C113   C     0.72757   0.26044   0.14508   0.00000  Uiso   1.00
C114   C     0.69144   0.30959   0.10667   0.00000  Uiso   1.00
C115   C     0.59972   0.30118   0.09139   0.00000  Uiso   1.00
H116   H     0.68576   0.11404   0.22616   0.00000  Uiso   1.00
H117   H     0.79783   0.02366   0.17592   0.00000  Uiso   1.00
H118   H     0.70358   0.14959   0.33933   0.00000  Uiso   1.00
H119   H     0.54088   0.15335   0.16952   0.00000  Uiso   1.00
H120   H     0.94571   0.94797   0.11038   0.00000  Uiso   1.00
H121   H     0.74697   0.21351   0.45493   0.00000  Uiso   1.00
H122   H     0.40388   0.22145   0.09687   0.00000  Uiso   1.00
H123   H     0.86780   0.30292   0.15019   0.00000  Uiso   1.00
H124   H     0.98986   0.22290   0.09577   0.00000  Uiso   1.00
H125   H     0.89562   0.34883   0.25918   0.00000  Uiso   1.00
H126   H     0.73292   0.35259   0.08938   0.00000  Uiso   1.00
H127   H     0.10158   0.10968   0.04533   0.00000  Uiso   1.00
H128   H     0.90283   0.37522   0.38989   0.00000  Uiso   1.00
H129   H     0.55974   0.38315   0.03182   0.00000  Uiso   1.00
O130   O     0.10067   0.97277   0.04345   0.00000  Uiso   1.00
O131   O     0.83991   0.32116   0.49549   0.00000  Uiso   1.00
O132   O     0.38979   0.33157   0.02571   0.00000  Uiso   1.00
N133   N     0.96564   0.99701   0.10253   0.00000  Uiso   1.00
N134   N     0.77984   0.24526   0.42466   0.00000  Uiso   1.00
N135   N     0.45907   0.25270   0.08992   0.00000  Uiso   1.00
N136   N     0.04950   0.08402   0.06752   0.00000  Uiso   1.00
N137   N     0.86370   0.33228   0.38966   0.00000  Uiso   1.00
N138   N     0.54294   0.33971   0.05492   0.00000  Uiso   1.00
C139   C     0.22747   0.65731   0.20875   0.00000  Uiso   1.00
C140   C     0.31359   0.63440   0.17091   0.00000  Uiso   1.00
C141   C     0.33930   0.56666   0.15860   0.00000  Uiso   1.00
C142   C     0.42057   0.55646   0.12311   0.00000  Uiso   1.00
C143   C     0.54618   0.51242   0.06778   0.00000  Uiso   1.00
C144   C     0.26240   0.70281   0.25970   0.00000  Uiso   1.00
C145   C     0.24505   0.69260   0.32204   0.00000  Uiso   1.00
C146   C     0.28322   0.74000   0.36128   0.00000  Uiso   1.00
C147   C     0.32929   0.80221   0.44379   0.00000  Uiso   1.00
C148   C     0.17400   0.70485   0.16744   0.00000  Uiso   1.00
C149   C     0.08232   0.69637   0.15221   0.00000  Uiso   1.00
C150   C     0.04606   0.74549   0.11378   0.00000  Uiso   1.00
C151   C     0.95488   0.81087   0.05305   0.00000  Uiso   1.00
C152   C     0.32609   0.75964   0.16759   0.00000  Uiso   1.00
C153   C     0.36716   0.68998   0.14856   0.00000  Uiso   1.00
C154   C     0.44842   0.67988   0.11307   0.00000  Uiso   1.00
C155   C     0.47424   0.61214   0.10071   0.00000  Uiso   1.00
C156   C     0.31597   0.75839   0.23735   0.00000  Uiso   1.00
C157   C     0.35417   0.80582   0.27650   0.00000  Uiso   1.00
C158   C     0.33689   0.79568   0.33888   0.00000  Uiso   1.00
C159   C     0.22757   0.76044   0.14508   0.00000  Uiso   1.00
C160   C     0.19144   0.80959   0.10667   0.00000  Uiso   1.00
C161   C     0.09972   0.80118   0.09139   0.00000  Uiso   1.00
H162   H     0.18576   0.61404   0.22616   0.00000  Uiso   1.00
H163   H     0.29783   0.52366   0.17592   0.00000  Uiso   1.00
H164   H     0.20358   0.64959   0.33933   0.00000  Uiso   1.00
H165   H     0.04088   0.65335   0.16952   0.00000  Uiso   1.00
H166   H     0.44571   0.44797   0.11038   0.00000  Uiso   1.00
H167   H     0.24697   0.71351   0.45493   0.00000  Uiso   1.00
H168   H     0.90388   0.72145   0.09687   0.00000  Uiso   1.00
H169   H     0.36780   0.80292   0.15019   0.00000  Uiso   1.00
H170   H     0.48986   0.72290   0.09577   0.00000  Uiso   1.00
H171   H     0.39562   0.84883   0.25918   0.00000  Uiso   1.00
H172   H     0.23292   0.85259   0.08938   0.00000  Uiso   1.00
H173   H     0.60158   0.60968   0.04533   0.00000  Uiso   1.00
H174   H     0.40283   0.87522   0.38989   0.00000  Uiso   1.00
H175   H     0.05974   0.88315   0.03182   0.00000  Uiso   1.00
O176   O     0.60067   0.47277   0.04345   0.00000  Uiso   1.00
O177   O     0.33991   0.82116   0.49549   0.00000  Uiso   1.00
O178   O     0.88979   0.83157   0.02571   0.00000  Uiso   1.00
N179   N     0.46564   0.49701   0.10253   0.00000  Uiso   1.00
N180   N     0.27984   0.74526   0.42466   0.00000  Uiso   1.00
N181   N     0.95907   0.75270   0.08992   0.00000  Uiso   1.00
N182   N     0.54950   0.58402   0.06752   0.00000  Uiso   1.00
N183   N     0.36370   0.83228   0.38966   0.00000  Uiso   1.00
N184   N     0.04294   0.83971   0.05492   0.00000  Uiso   1.00
C185   C     0.72747   0.84269   0.70875   0.00000  Uiso   1.00
C186   C     0.81359   0.86560   0.67091   0.00000  Uiso   1.00
C187   C     0.83930   0.93334   0.65860   0.00000  Uiso   1.00
C188   C     0.92057   0.94354   0.62311   0.00000  Uiso   1.00
C189   C     0.04618   0.98758   0.56778   0.00000  Uiso   1.00
C190   C     0.76240   0.79719   0.75970   0.00000  Uiso   1.00
C191   C     0.74505   0.80740   0.82204   0.00000  Uiso   1.00
C192   C     0.78322   0.76000   0.86128   0.00000  Uiso   1.00
C193   C     0.82929   0.69779   0.94379   0.00000  Uiso   1.00
C194   C     0.67400   0.79515   0.66744   0.00000  Uiso   1.00
C195   C     0.58232   0.80363   0.65221   0.00000  Uiso   1.00
C196   C     0.54606   0.75451   0.61378   0.00000  Uiso   1.00
C197   C     0.45488   0.68913   0.55305   0.00000  Uiso   1.00
C198   C     0.82609   0.74036   0.66759   0.00000  Uiso   1.00
C199   C     0.86716   0.81002   0.64856   0.00000  Uiso   1.00
C200   C     0.94842   0.82012   0.61307   0.00000  Uiso   1.00
C201   C     0.97424   0.88786   0.60071   0.00000  Uiso   1.00
C202   C     0.81597   0.74161   0.73735   0.00000  Uiso   1.00
C203   C     0.85417   0.69418   0.77650   0.00000  Uiso   1.00
C204   C     0.83689   0.70432   0.83888   0.00000  Uiso   1.00
C205   C     0.72757   0.73956   0.64508   0.00000  Uiso   1.00
C206   C     0.69144   0.69041   0.60667   0.00000  Uiso   1.00
C207   C     0.59972   0.69882   0.59139   0.00000  Uiso   1.00
H208   H     0.68576   0.88596   0.72616   0.00000  Uiso   1.00
H209   H     0.79783   0.97634   0.67592   0.00000  Uiso   1.00
H210   H     0.70358   0.85041   0.83933   0.00000  Uiso   1.00
H211   H     0.54088   0.84665   0.66952   0.00000  Uiso   1.00
H212   H     0.94571   0.05203   0.61038   0.00000  Uiso   1.00
H213   H     0.74697   0.78649   0.95493   0.00000  Uiso   1.00
H214   H     0.40388   0.77855   0.59687   0.00000  Uiso   1.00
H215   H     0.86780   0.69708   0.65019   0.00000  Uiso   1.00
H216   H     0.98986   0.77710   0.59577   0.00000  Uiso   1.00
H217   H     0.89562   0.65117   0.75918   0.00000  Uiso   1.00
H218   H     0.73292   0.64741   0.58938   0.00000  Uiso   1.00
H219   H     0.10158   0.89032   0.54533   0.00000  Uiso   1.00
H220   H     0.90283   0.62478   0.88989   0.00000  Uiso   1.00
H221   H     0.55974   0.61685   0.53182   0.00000  Uiso   1.00
O222   O     0.10067   0.02723   0.54345   0.00000  Uiso   1.00
O223   O     0.83991   0.67884   0.99549   0.00000  Uiso   1.00
O224   O     0.38979   0.66843   0.52571   0.00000  Uiso   1.00
N225   N     0.96564   0.00299   0.60253   0.00000  Uiso   1.00
N226   N     0.77984   0.75474   0.92466   0.00000  Uiso   1.00
N227   N     0.45907   0.74730   0.58992   0.00000  Uiso   1.00
N228   N     0.04950   0.91598   0.56752   0.00000  Uiso   1.00
N229   N     0.86370   0.66772   0.88966   0.00000  Uiso   1.00
N230   N     0.54294   0.66029   0.55492   0.00000  Uiso   1.00
C231   C     0.22747   0.34269   0.70875   0.00000  Uiso   1.00
C232   C     0.31359   0.36560   0.67091   0.00000  Uiso   1.00
C233   C     0.33930   0.43334   0.65860   0.00000  Uiso   1.00
C234   C     0.42057   0.44354   0.62311   0.00000  Uiso   1.00
C235   C     0.54618   0.48758   0.56778   0.00000  Uiso   1.00
C236   C     0.26240   0.29719   0.75970   0.00000  Uiso   1.00
C237   C     0.24505   0.30740   0.82204   0.00000  Uiso   1.00
C238   C     0.28322   0.26000   0.86128   0.00000  Uiso   1.00
C239   C     0.32929   0.19779   0.94379   0.00000  Uiso   1.00
C240   C     0.17400   0.29515   0.66744   0.00000  Uiso   1.00
C241   C     0.08232   0.30363   0.65221   0.00000  Uiso   1.00
C242   C     0.04606   0.25451   0.61378   0.00000  Uiso   1.00
C243   C     0.95488   0.18913   0.55305   0.00000  Uiso   1.00
C244   C     0.32609   0.24036   0.66759   0.00000  Uiso   1.00
C245   C     0.36716   0.31002   0.64856   0.00000  Uiso   1.00
C246   C     0.44842   0.32012   0.61307   0.00000  Uiso   1.00
C247   C     0.47424   0.38786   0.60071   0.00000  Uiso   1.00
C248   C     0.31597   0.24161   0.73735   0.00000  Uiso   1.00
C249   C     0.35417   0.19418   0.77650   0.00000  Uiso   1.00
C250   C     0.33689   0.20432   0.83888   0.00000  Uiso   1.00
C251   C     0.22757   0.23956   0.64508   0.00000  Uiso   1.00
C252   C     0.19144   0.19041   0.60667   0.00000  Uiso   1.00
C253   C     0.09972   0.19882   0.59139   0.00000  Uiso   1.00
H254   H     0.18576   0.38596   0.72616   0.00000  Uiso   1.00
H255   H     0.29783   0.47634   0.67592   0.00000  Uiso   1.00
H256   H     0.20358   0.35041   0.83933   0.00000  Uiso   1.00
H257   H     0.04088   0.34665   0.66952   0.00000  Uiso   1.00
H258   H     0.44571   0.55203   0.61038   0.00000  Uiso   1.00
H259   H     0.24697   0.28649   0.95493   0.00000  Uiso   1.00
H260   H     0.90388   0.27855   0.59687   0.00000  Uiso   1.00
H261   H     0.36780   0.19708   0.65019   0.00000  Uiso   1.00
H262   H     0.48986   0.27710   0.59577   0.00000  Uiso   1.00
H263   H     0.39562   0.15117   0.75918   0.00000  Uiso   1.00
H264   H     0.23292   0.14741   0.58938   0.00000  Uiso   1.00
H265   H     0.60158   0.39032   0.54533   0.00000  Uiso   1.00
H266   H     0.40283   0.12478   0.88989   0.00000  Uiso   1.00
H267   H     0.05974   0.11685   0.53182   0.00000  Uiso   1.00
O268   O     0.60067   0.52723   0.54345   0.00000  Uiso   1.00
O269   O     0.33991   0.17884   0.99549   0.00000  Uiso   1.00
O270   O     0.88979   0.16843   0.52571   0.00000  Uiso   1.00
N271   N     0.46564   0.50299   0.60253   0.00000  Uiso   1.00
N272   N     0.27984   0.25474   0.92466   0.00000  Uiso   1.00
N273   N     0.95907   0.24730   0.58992   0.00000  Uiso   1.00
N274   N     0.54950   0.41598   0.56752   0.00000  Uiso   1.00
N275   N     0.36370   0.16772   0.88966   0.00000  Uiso   1.00
N276   N     0.04294   0.16029   0.55492   0.00000  Uiso   1.00
C277   C     0.27253   0.84269   0.79125   0.00000  Uiso   1.00
C278   C     0.18641   0.86560   0.82909   0.00000  Uiso   1.00
C279   C     0.16070   0.93334   0.84140   0.00000  Uiso   1.00
C280   C     0.07943   0.94354   0.87689   0.00000  Uiso   1.00
C281   C     0.95382   0.98758   0.93222   0.00000  Uiso   1.00
C282   C     0.23760   0.79719   0.74030   0.00000  Uiso   1.00
C283   C     0.25495   0.80740   0.67796   0.00000  Uiso   1.00
C284   C     0.21678   0.76000   0.63872   0.00000  Uiso   1.00
C285   C     0.17071   0.69779   0.55621   0.00000  Uiso   1.00
C286   C     0.32600   0.79515   0.83256   0.00000  Uiso   1.00
C287   C     0.41768   0.80363   0.84779   0.00000  Uiso   1.00
C288   C     0.45394   0.75451   0.88622   0.00000  Uiso   1.00
C289   C     0.54512   0.68913   0.94695   0.00000  Uiso   1.00
C290   C     0.17391   0.74036   0.83241   0.00000  Uiso   1.00
C291   C     0.13284   0.81002   0.85144   0.00000  Uiso   1.00
C292   C     0.05158   0.82012   0.88693   0.00000  Uiso   1.00
C293   C     0.02576   0.88786   0.89929   0.00000  Uiso   1.00
C294   C     0.18403   0.74161   0.76265   0.00000  Uiso   1.00
C295   C     0.14583   0.69418   0.72350   0.00000  Uiso   1.00
C296   C     0.16311   0.70432   0.66112   0.00000  Uiso   1.00
C297   C     0.27243   0.73956   0.85492   0.00000  Uiso   1.00
C298   C     0.30856   0.69041   0.89333   0.00000  Uiso   1.00
C299   C     0.40028   0.69882   0.90861   0.00000  Uiso   1.00
H300   H     0.31424   0.88596   0.77384   0.00000  Uiso   1.00
H301   H     0.20217   0.97634   0.82408   0.00000  Uiso   1.00
H302   H     0.29642   0.85041   0.66067   0.00000  Uiso   1.00
H303   H     0.45912   0.84665   0.83048   0.00000  Uiso   1.00
H304   H     0.05429   0.05203   0.88962   0.00000  Uiso   1.00
H305   H     0.25303   0.78649   0.54507   0.00000  Uiso   1.00
H306   H     0.59612   0.77855   0.90313   0.00000  Uiso   1.00
H307   H     0.13220   0.69708   0.84981   0.00000  Uiso   1.00
H308   H     0.01014   0.77710   0.90423   0.00000  Uiso   1.00
H309   H     0.10438   0.65117   0.74082   0.00000  Uiso   1.00
H310   H     0.26708   0.64741   0.91062   0.00000  Uiso   1.00
H311   H     0.89842   0.89032   0.95467   0.00000  Uiso   1.00
H312   H     0.09717   0.62478   0.61011   0.00000  Uiso   1.00
H313   H     0.44026   0.61685   0.96818   0.00000  Uiso   1.00
O314   O     0.89933   0.02723   0.95655   0.00000  Uiso   1.00
O315   O     0.16009   0.67884   0.50451   0.00000  Uiso   1.00
O316   O     0.61021   0.66843   0.97429   0.00000  Uiso   1.00
N317   N     0.03436   0.00299   0.89747   0.00000  Uiso   1.00
N318   N     0.22016   0.75474   0.57534   0.00000  Uiso   1.00
N319   N     0.54093   0.74730   0.91008   0.00000  Uiso   1.00
N320   N     0.95050   0.91598   0.93248   0.00000  Uiso   1.00
N321   N     0.13630   0.66772   0.61034   0.00000  Uiso   1.00
N322   N     0.45706   0.66029   0.94508   0.00000  Uiso   1.00
C323   C     0.77253   0.34269   0.79125   0.00000  Uiso   1.00
C324   C     0.68641   0.36560   0.82909   0.00000  Uiso   1.00
C325   C     0.66070   0.43334   0.84140   0.00000  Uiso   1.00
C326   C     0.57943   0.44354   0.87689   0.00000  Uiso   1.00
C327   C     0.45382   0.48758   0.93222   0.00000  Uiso   1.00
C328   C     0.73760   0.29719   0.74030   0.00000  Uiso   1.00
C329   C     0.75495   0.30740   0.67796   0.00000  Uiso   1.00
C330   C     0.71678   0.26000   0.63872   0.00000  Uiso   1.00
C331   C     0.67071   0.19779   0.55621   0.00000  Uiso   1.00
C332   C     0.82600   0.29515   0.83256   0.00000  Uiso   1.00
C333   C     0.91768   0.30363   0.84779   0.00000  Uiso   1.00
C334   C     0.95394   0.25451   0.88622   0.00000  Uiso   1.00
C335   C     0.04512   0.18913   0.94695   0.00000  Uiso   1.00
C336   C     0.67391   0.24036   0.83241   0.00000  Uiso   1.00
C337   C     0.63284   0.31002   0.85144   0.00000  Uiso   1.00
C338   C     0.55158   0.32012   0.88693   0.00000  Uiso   1.00
C339   C     0.52576   0.38786   0.89929   0.00000  Uiso   1.00
C340   C     0.68403   0.24161   0.76265   0.00000  Uiso   1.00
C341   C     0.64583   0.19418   0.72350   0.00000  Uiso   1.00
C342   C     0.66311   0.20432   0.66112   0.00000  Uiso   1.00
C343   C     0.77243   0.23956   0.85492   0.00000  Uiso   1.00
C344   C     0.80856   0.19041   0.89333   0.00000  Uiso   1.00
C345   C     0.90028   0.19882   0.90861   0.00000  Uiso   1.00
H346   H     0.81424   0.38596   0.77384   0.00000  Uiso   1.00
H347   H     0.70217   0.47634   0.82408   0.00000  Uiso   1.00
H348   H     0.79642   0.35041   0.66067   0.00000  Uiso   1.00
H349   H     0.95912   0.34665   0.83048   0.00000  Uiso   1.00
H350   H     0.55429   0.55203   0.88962   0.00000  Uiso   1.00
H351   H     0.75303   0.28649   0.54507   0.00000  Uiso   1.00
H352   H     0.09612   0.27855   0.90313   0.00000  Uiso   1.00
H353   H     0.63220   0.19708   0.84981   0.00000  Uiso   1.00
H354   H     0.51014   0.27710   0.90423   0.00000  Uiso   1.00
H355   H     0.60438   0.15117   0.74082   0.00000  Uiso   1.00
H356   H     0.76708   0.14741   0.91062   0.00000  Uiso   1.00
H357   H     0.39842   0.39032   0.95467   0.00000  Uiso   1.00
H358   H     0.59717   0.12478   0.61011   0.00000  Uiso   1.00
H359   H     0.94026   0.11685   0.96818   0.00000  Uiso   1.00
O360   O     0.39933   0.52723   0.95655   0.00000  Uiso   1.00
O361   O     0.66009   0.17884   0.50451   0.00000  Uiso   1.00
O362   O     0.11021   0.16843   0.97429   0.00000  Uiso   1.00
N363   N     0.53436   0.50299   0.89747   0.00000  Uiso   1.00
N364   N     0.72016   0.25474   0.57534   0.00000  Uiso   1.00
N365   N     0.04093   0.24730   0.91008   0.00000  Uiso   1.00
N366   N     0.45050   0.41598   0.93248   0.00000  Uiso   1.00
N367   N     0.63630   0.16772   0.61034   0.00000  Uiso   1.00
N368   N     0.95706   0.16029   0.94508   0.00000  Uiso   1.00
