data_job_06953
_audit_creation_date              2018-12-19
_audit_creation_method            'Materials Studio'
_symmetry_space_group_name_H-M    'P1'
_symmetry_Int_Tables_number       1
_symmetry_cell_setting            triclinic
loop_
_symmetry_equiv_pos_as_xyz
  x,y,z
_cell_length_a                    13.9388
_cell_length_b                    33.9546
_cell_length_c                    35.4015
_cell_angle_alpha                 109.3460
_cell_angle_beta                  85.0351
_cell_angle_gamma                 85.4916
loop_
_atom_site_label
_atom_site_type_symbol
_atom_site_fract_x
_atom_site_fract_y
_atom_site_fract_z
_atom_site_U_iso_or_equiv
_atom_site_adp_type
_atom_site_occupancy
C1     C     0.53612   0.93774   0.71433   0.00000  Uiso   1.00
C2     C     0.56862   0.90470   0.73249   0.00000  Uiso   1.00
C3     C     0.50870   0.88014   0.74599   0.00000  Uiso   1.00
C4     C     0.55241   0.85173   0.76161   0.00000  Uiso   1.00
C5     C     0.58765   0.80100   0.78952   0.00000  Uiso   1.00
C6     C     0.57049   0.97860   0.74002   0.00000  Uiso   1.00
C7     C     0.51216   0.01616   0.75985   0.00000  Uiso   1.00
C8     C     0.55746   0.04996   0.78182   0.00000  Uiso   1.00
C9     C     0.59562   0.11396   0.82140   0.00000  Uiso   1.00
C10    C     0.59545   0.92528   0.67304   0.00000  Uiso   1.00
C11    C     0.55811   0.91803   0.63655   0.00000  Uiso   1.00
C12    C     0.62442   0.90694   0.60213   0.00000  Uiso   1.00
C13    C     0.70133   0.88816   0.53771   0.00000  Uiso   1.00
C14    C     0.72029   0.93095   0.71807   0.00000  Uiso   1.00
C15    C     0.66865   0.90102   0.73452   0.00000  Uiso   1.00
C16    C     0.71247   0.87263   0.75013   0.00000  Uiso   1.00
C17    C     0.65263   0.84803   0.76365   0.00000  Uiso   1.00
C18    C     0.67052   0.97491   0.74206   0.00000  Uiso   1.00
C19    C     0.71592   0.00866   0.76400   0.00000  Uiso   1.00
C20    C     0.65767   0.04627   0.78386   0.00000  Uiso   1.00
C21    C     0.69549   0.92159   0.67508   0.00000  Uiso   1.00
C22    C     0.76187   0.91052   0.64070   0.00000  Uiso   1.00
C23    C     0.72463   0.90325   0.60417   0.00000  Uiso   1.00
H24    H     0.45824   0.94061   0.71275   0.00000  Uiso   1.00
H25    H     0.43129   0.88300   0.74441   0.00000  Uiso   1.00
H26    H     0.43475   0.01901   0.75827   0.00000  Uiso   1.00
H27    H     0.48069   0.92088   0.63499   0.00000  Uiso   1.00
H28    H     0.44552   0.81752   0.78043   0.00000  Uiso   1.00
H29    H     0.45282   0.10430   0.80964   0.00000  Uiso   1.00
H30    H     0.54970   0.89739   0.54968   0.00000  Uiso   1.00
H31    H     0.79817   0.92809   0.71966   0.00000  Uiso   1.00
H32    H     0.78988   0.86979   0.75170   0.00000  Uiso   1.00
H33    H     0.79333   0.00579   0.76556   0.00000  Uiso   1.00
H34    H     0.83928   0.90767   0.64228   0.00000  Uiso   1.00
H35    H     0.73657   0.80679   0.78635   0.00000  Uiso   1.00
H36    H     0.74386   0.09357   0.81556   0.00000  Uiso   1.00
H37    H     0.84074   0.88666   0.55560   0.00000  Uiso   1.00
O38    O     0.57945   0.77404   0.80436   0.00000  Uiso   1.00
O39    O     0.58903   0.15028   0.84268   0.00000  Uiso   1.00
O40    O     0.71613   0.87882   0.50162   0.00000  Uiso   1.00
N41    N     0.51516   0.82299   0.77742   0.00000  Uiso   1.00
N42    N     0.52198   0.09111   0.80474   0.00000  Uiso   1.00
N43    N     0.61255   0.89767   0.56170   0.00000  Uiso   1.00
N44    N     0.67177   0.81722   0.78060   0.00000  Uiso   1.00
N45    N     0.67859   0.08534   0.80792   0.00000  Uiso   1.00
N46    N     0.76916   0.89190   0.56488   0.00000  Uiso   1.00
C47    C     0.27348   0.32635   0.35969   0.00000  Uiso   1.00
C48    C     0.33174   0.33057   0.32301   0.00000  Uiso   1.00
C49    C     0.30395   0.32007   0.28451   0.00000  Uiso   1.00
C50    C     0.36740   0.32625   0.25506   0.00000  Uiso   1.00
C51    C     0.44450   0.33033   0.19677   0.00000  Uiso   1.00
C52    C     0.33979   0.29885   0.37529   0.00000  Uiso   1.00
C53    C     0.31874   0.26168   0.38075   0.00000  Uiso   1.00
C54    C     0.38897   0.24117   0.39532   0.00000  Uiso   1.00
C55    C     0.47852   0.19602   0.41821   0.00000  Uiso   1.00
C56    C     0.26001   0.36995   0.39185   0.00000  Uiso   1.00
C57    C     0.17189   0.39255   0.41125   0.00000  Uiso   1.00
C58    C     0.17495   0.43189   0.43976   0.00000  Uiso   1.00
C59    C     0.14063   0.49713   0.48837   0.00000  Uiso   1.00
C60    C     0.43559   0.35600   0.37585   0.00000  Uiso   1.00
C61    C     0.41980   0.34667   0.33179   0.00000  Uiso   1.00
C62    C     0.48331   0.35287   0.30239   0.00000  Uiso   1.00
C63    C     0.45561   0.34238   0.26386   0.00000  Uiso   1.00
C64    C     0.42784   0.31495   0.38407   0.00000  Uiso   1.00
C65    C     0.49811   0.29449   0.39863   0.00000  Uiso   1.00
C66    C     0.47718   0.25730   0.40411   0.00000  Uiso   1.00
C67    C     0.34806   0.38605   0.40063   0.00000  Uiso   1.00
C68    C     0.35125   0.42536   0.42912   0.00000  Uiso   1.00
C69    C     0.26316   0.44802   0.44856   0.00000  Uiso   1.00
H70    H     0.20493   0.31381   0.35286   0.00000  Uiso   1.00
H71    H     0.23580   0.30760   0.27773   0.00000  Uiso   1.00
H72    H     0.25059   0.24923   0.37396   0.00000  Uiso   1.00
H73    H     0.10376   0.38008   0.40444   0.00000  Uiso   1.00
H74    H     0.30888   0.30781   0.19830   0.00000  Uiso   1.00
H75    H     0.34005   0.18474   0.40122   0.00000  Uiso   1.00
H76    H     0.03043   0.46066   0.46551   0.00000  Uiso   1.00
H77    H     0.50415   0.36854   0.38269   0.00000  Uiso   1.00
H78    H     0.55145   0.36533   0.30920   0.00000  Uiso   1.00
H79    H     0.56624   0.30696   0.40542   0.00000  Uiso   1.00
H80    H     0.41941   0.43781   0.43591   0.00000  Uiso   1.00
H81    H     0.56507   0.35466   0.22384   0.00000  Uiso   1.00
H82    H     0.59624   0.23159   0.42676   0.00000  Uiso   1.00
H83    H     0.28663   0.50751   0.49105   0.00000  Uiso   1.00
O84    O     0.46271   0.32813   0.16218   0.00000  Uiso   1.00
O85    O     0.50359   0.16666   0.42841   0.00000  Uiso   1.00
O86    O     0.09738   0.52866   0.51275   0.00000  Uiso   1.00
N87    N     0.36268   0.31928   0.21440   0.00000  Uiso   1.00
N88    N     0.39183   0.20421   0.40411   0.00000  Uiso   1.00
N89    N     0.10236   0.46217   0.46422   0.00000  Uiso   1.00
N90    N     0.50053   0.34449   0.22814   0.00000  Uiso   1.00
N91    N     0.52968   0.22942   0.41785   0.00000  Uiso   1.00
N92    N     0.24021   0.48738   0.47797   0.00000  Uiso   1.00
C93    C     0.58243   0.67343   0.02560   0.00000  Uiso   1.00
C94    C     0.62073   0.70786   0.05874   0.00000  Uiso   1.00
C95    C     0.56725   0.74480   0.08409   0.00000  Uiso   1.00
C96    C     0.61557   0.77228   0.11245   0.00000  Uiso   1.00
C97    C     0.66012   0.82714   0.16345   0.00000  Uiso   1.00
C98    C     0.64725   0.66783   0.98679   0.00000  Uiso   1.00
C99    C     0.61607   0.67111   0.95166   0.00000  Uiso   1.00
C100   C     0.68671   0.66489   0.91945   0.00000  Uiso   1.00
C101   C     0.77242   0.65757   0.85874   0.00000  Uiso   1.00
C102   C     0.60327   0.63305   0.03489   0.00000  Uiso   1.00
C103   C     0.53511   0.60708   0.04019   0.00000  Uiso   1.00
C104   C     0.56873   0.57157   0.04847   0.00000  Uiso   1.00
C105   C     0.58615   0.51026   0.06244   0.00000  Uiso   1.00
C106   C     0.76333   0.65656   0.03087   0.00000  Uiso   1.00
C107   C     0.71900   0.69869   0.06160   0.00000  Uiso   1.00
C108   C     0.76741   0.72612   0.08993   0.00000  Uiso   1.00
C109   C     0.71401   0.76310   0.11532   0.00000  Uiso   1.00
C110   C     0.74551   0.65866   0.98965   0.00000  Uiso   1.00
C111   C     0.81622   0.65243   0.95749   0.00000  Uiso   1.00
C112   C     0.78515   0.65571   0.92232   0.00000  Uiso   1.00
C113   C     0.70153   0.62388   0.03775   0.00000  Uiso   1.00
C114   C     0.73526   0.58841   0.04602   0.00000  Uiso   1.00
C115   C     0.66717   0.56239   0.05133   0.00000  Uiso   1.00
H116   H     0.50593   0.68057   0.02337   0.00000  Uiso   1.00
H117   H     0.49121   0.75188   0.08186   0.00000  Uiso   1.00
H118   H     0.54002   0.67820   0.94945   0.00000  Uiso   1.00
H119   H     0.45908   0.61418   0.03797   0.00000  Uiso   1.00
H120   H     0.51824   0.82691   0.14797   0.00000  Uiso   1.00
H121   H     0.62115   0.67153   0.86876   0.00000  Uiso   1.00
H122   H     0.45046   0.53654   0.05542   0.00000  Uiso   1.00
H123   H     0.83984   0.64942   0.03310   0.00000  Uiso   1.00
H124   H     0.84345   0.71902   0.09213   0.00000  Uiso   1.00
H125   H     0.89225   0.64534   0.95972   0.00000  Uiso   1.00
H126   H     0.81131   0.58133   0.04824   0.00000  Uiso   1.00
H127   H     0.80413   0.80024   0.15630   0.00000  Uiso   1.00
H128   H     0.90703   0.64486   0.87709   0.00000  Uiso   1.00
H129   H     0.73635   0.50987   0.06375   0.00000  Uiso   1.00
O130   O     0.65754   0.85993   0.19078   0.00000  Uiso   1.00
O131   O     0.79255   0.65607   0.82447   0.00000  Uiso   1.00
O132   O     0.56861   0.47897   0.06936   0.00000  Uiso   1.00
N133   N     0.58503   0.81107   0.14184   0.00000  Uiso   1.00
N134   N     0.68124   0.66581   0.88079   0.00000  Uiso   1.00
N135   N     0.52166   0.53960   0.05529   0.00000  Uiso   1.00
N136   N     0.73886   0.79672   0.14632   0.00000  Uiso   1.00
N137   N     0.83507   0.65146   0.88528   0.00000  Uiso   1.00
N138   N     0.67550   0.52525   0.05978   0.00000  Uiso   1.00
C139   C     0.80160   0.28272   0.29984   0.00000  Uiso   1.00
C140   C     0.86775   0.24701   0.30438   0.00000  Uiso   1.00
C141   C     0.84466   0.20656   0.29854   0.00000  Uiso   1.00
C142   C     0.91511   0.17844   0.30416   0.00000  Uiso   1.00
C143   C     0.00411   0.12116   0.30951   0.00000  Uiso   1.00
C144   C     0.85766   0.29754   0.26910   0.00000  Uiso   1.00
C145   C     0.82608   0.29958   0.23360   0.00000  Uiso   1.00
C146   C     0.88803   0.31400   0.20953   0.00000  Uiso   1.00
C147   C     0.96134   0.33520   0.16012   0.00000  Uiso   1.00
C148   C     0.79328   0.31870   0.34000   0.00000  Uiso   1.00
C149   C     0.70756   0.33854   0.36411   0.00000  Uiso   1.00
C150   C     0.71530   0.37079   0.39972   0.00000  Uiso   1.00
C151   C     0.68864   0.42485   0.46039   0.00000  Uiso   1.00
C152   C     0.96777   0.30473   0.32021   0.00000  Uiso   1.00
C153   C     0.95801   0.25896   0.31544   0.00000  Uiso   1.00
C154   C     0.02851   0.23090   0.32107   0.00000  Uiso   1.00
C155   C     0.00553   0.19041   0.31525   0.00000  Uiso   1.00
C156   C     0.94791   0.30949   0.28016   0.00000  Uiso   1.00
C157   C     0.00993   0.32392   0.25613   0.00000  Uiso   1.00
C158   C     0.97845   0.32598   0.22061   0.00000  Uiso   1.00
C159   C     0.88353   0.33065   0.35106   0.00000  Uiso   1.00
C160   C     0.89141   0.36288   0.38664   0.00000  Uiso   1.00
C161   C     0.80572   0.38277   0.41080   0.00000  Uiso   1.00
H162   H     0.73134   0.27342   0.29123   0.00000  Uiso   1.00
H163   H     0.77481   0.19732   0.28998   0.00000  Uiso   1.00
H164   H     0.75623   0.29033   0.22506   0.00000  Uiso   1.00
H165   H     0.63773   0.32929   0.35554   0.00000  Uiso   1.00
H166   H     0.86282   0.11821   0.29346   0.00000  Uiso   1.00
H167   H     0.82363   0.31434   0.15657   0.00000  Uiso   1.00
H168   H     0.57375   0.39649   0.43172   0.00000  Uiso   1.00
H169   H     0.03804   0.31403   0.32882   0.00000  Uiso   1.00
H170   H     0.09835   0.24016   0.32963   0.00000  Uiso   1.00
H171   H     0.07976   0.33317   0.26470   0.00000  Uiso   1.00
H172   H     0.96127   0.37213   0.39519   0.00000  Uiso   1.00
H173   H     0.12542   0.15298   0.32564   0.00000  Uiso   1.00
H174   H     0.08622   0.34911   0.18875   0.00000  Uiso   1.00
H175   H     0.83634   0.43126   0.46390   0.00000  Uiso   1.00
O176   O     0.02827   0.08627   0.30939   0.00000  Uiso   1.00
O177   O     0.97684   0.34358   0.12980   0.00000  Uiso   1.00
O178   O     0.64900   0.45136   0.49080   0.00000  Uiso   1.00
N179   N     0.91634   0.13654   0.30093   0.00000  Uiso   1.00
N180   N     0.87970   0.31990   0.17294   0.00000  Uiso   1.00
N181   N     0.64608   0.39671   0.43018   0.00000  Uiso   1.00
N182   N     0.05764   0.15525   0.31825   0.00000  Uiso   1.00
N183   N     0.02101   0.33861   0.19026   0.00000  Uiso   1.00
N184   N     0.78738   0.41542   0.44750   0.00000  Uiso   1.00
C185   C     0.04237   0.00712   0.63744   0.00000  Uiso   1.00
C186   C     0.07357   0.03445   0.67707   0.00000  Uiso   1.00
C187   C     0.01482   0.05129   0.71363   0.00000  Uiso   1.00
C188   C     0.05702   0.07545   0.74639   0.00000  Uiso   1.00
C189   C     0.09066   0.11681   0.80850   0.00000  Uiso   1.00
C190   C     0.11145   0.96657   0.62340   0.00000  Uiso   1.00
C191   C     0.08454   0.92632   0.61484   0.00000  Uiso   1.00
C192   C     0.15864   0.89333   0.60242   0.00000  Uiso   1.00
C193   C     0.25108   0.82929   0.58118   0.00000  Uiso   1.00
C194   C     0.06504   0.02922   0.60715   0.00000  Uiso   1.00
C195   C     0.99913   0.04165   0.58491   0.00000  Uiso   1.00
C196   C     0.03416   0.06141   0.55879   0.00000  Uiso   1.00
C197   C     0.05455   0.09465   0.51231   0.00000  Uiso   1.00
C198   C     0.22179   0.02010   0.63058   0.00000  Uiso   1.00
C199   C     0.17102   0.04151   0.67334   0.00000  Uiso   1.00
C200   C     0.21333   0.06565   0.70605   0.00000  Uiso   1.00
C201   C     0.15465   0.08251   0.74266   0.00000  Uiso   1.00
C202   C     0.20890   0.97362   0.61968   0.00000  Uiso   1.00
C203   C     0.28305   0.94068   0.60726   0.00000  Uiso   1.00
C204   C     0.25627   0.90039   0.59869   0.00000  Uiso   1.00
C205   C     0.16250   0.03628   0.60342   0.00000  Uiso   1.00
C206   C     0.19764   0.05602   0.57733   0.00000  Uiso   1.00
C207   C     0.13179   0.06847   0.55506   0.00000  Uiso   1.00
H208   H     0.96650   0.00162   0.64033   0.00000  Uiso   1.00
H209   H     0.93941   0.04582   0.71651   0.00000  Uiso   1.00
H210   H     0.00912   0.92087   0.61772   0.00000  Uiso   1.00
H211   H     0.92372   0.03619   0.58780   0.00000  Uiso   1.00
H212   H     0.95236   0.09791   0.79932   0.00000  Uiso   1.00
H213   H     0.09935   0.83445   0.59102   0.00000  Uiso   1.00
H214   H     0.91927   0.07762   0.52791   0.00000  Uiso   1.00
H215   H     0.29766   0.02559   0.62768   0.00000  Uiso   1.00
H216   H     0.28874   0.07110   0.70316   0.00000  Uiso   1.00
H217   H     0.35846   0.94615   0.60438   0.00000  Uiso   1.00
H218   H     0.27306   0.06147   0.57445   0.00000  Uiso   1.00
H219   H     0.23589   0.11843   0.78849   0.00000  Uiso   1.00
H220   H     0.38289   0.85497   0.58018   0.00000  Uiso   1.00
H221   H     0.20280   0.09814   0.51708   0.00000  Uiso   1.00
O222   O     0.08229   0.13767   0.84378   0.00000  Uiso   1.00
O223   O     0.27514   0.79201   0.57050   0.00000  Uiso   1.00
O224   O     0.03887   0.11104   0.48771   0.00000  Uiso   1.00
N225   N     0.02031   0.09650   0.78641   0.00000  Uiso   1.00
N226   N     0.15774   0.85018   0.59166   0.00000  Uiso   1.00
N227   N     0.98938   0.07751   0.53266   0.00000  Uiso   1.00
N228   N     0.17288   0.10754   0.78058   0.00000  Uiso   1.00
N229   N     0.31031   0.86122   0.58584   0.00000  Uiso   1.00
N230   N     0.14195   0.08855   0.52683   0.00000  Uiso   1.00
C231   C     0.13334   0.74289   0.96074   0.00000  Uiso   1.00
C232   C     0.19683   0.75368   0.92908   0.00000  Uiso   1.00
C233   C     0.16377   0.76922   0.90033   0.00000  Uiso   1.00
C234   C     0.23343   0.77710   0.87408   0.00000  Uiso   1.00
C235   C     0.31695   0.79500   0.82456   0.00000  Uiso   1.00
C236   C     0.16253   0.76857   0.00143   0.00000  Uiso   1.00
C237   C     0.10062   0.79662   0.03350   0.00000  Uiso   1.00
C238   C     0.14141   0.81703   0.06815   0.00000  Uiso   1.00
C239   C     0.17166   0.85803   0.13095   0.00000  Uiso   1.00
C240   C     0.16572   0.69707   0.95482   0.00000  Uiso   1.00
C241   C     0.10649   0.66500   0.94771   0.00000  Uiso   1.00
C242   C     0.14996   0.62521   0.94313   0.00000  Uiso   1.00
C243   C     0.18516   0.55519   0.93356   0.00000  Uiso   1.00
C244   C     0.31586   0.72924   0.96525   0.00000  Uiso   1.00
C245   C     0.29597   0.74626   0.93153   0.00000  Uiso   1.00
C246   C     0.36571   0.75412   0.90532   0.00000  Uiso   1.00
C247   C     0.33275   0.76967   0.87653   0.00000  Uiso   1.00
C248   C     0.26167   0.76115   0.00388   0.00000  Uiso   1.00
C249   C     0.30256   0.78152   0.03849   0.00000  Uiso   1.00
C250   C     0.24073   0.80961   0.07060   0.00000  Uiso   1.00
C251   C     0.26486   0.68965   0.95726   0.00000  Uiso   1.00
C252   C     0.30843   0.64990   0.95269   0.00000  Uiso   1.00
C253   C     0.24928   0.61779   0.94558   0.00000  Uiso   1.00
H254   H     0.05615   0.74866   0.95884   0.00000  Uiso   1.00
H255   H     0.08704   0.77496   0.89845   0.00000  Uiso   1.00
H256   H     0.02390   0.80235   0.03160   0.00000  Uiso   1.00
H257   H     0.02977   0.67075   0.94582   0.00000  Uiso   1.00
H258   H     0.16500   0.80086   0.83258   0.00000  Uiso   1.00
H259   H     0.03187   0.85861   0.11334   0.00000  Uiso   1.00
H260   H     0.04424   0.58111   0.93246   0.00000  Uiso   1.00
H261   H     0.39305   0.72347   0.96716   0.00000  Uiso   1.00
H262   H     0.44242   0.74838   0.90722   0.00000  Uiso   1.00
H263   H     0.37928   0.77578   0.04037   0.00000  Uiso   1.00
H264   H     0.38515   0.64418   0.95459   0.00000  Uiso   1.00
H265   H     0.45345   0.77929   0.83970   0.00000  Uiso   1.00
H266   H     0.32031   0.83704   0.12046   0.00000  Uiso   1.00
H267   H     0.33269   0.55954   0.93958   0.00000  Uiso   1.00
O268   O     0.33563   0.80693   0.79657   0.00000  Uiso   1.00
O269   O     0.16095   0.88269   0.16492   0.00000  Uiso   1.00
O270   O     0.17719   0.51862   0.92760   0.00000  Uiso   1.00
N271   N     0.22611   0.79236   0.84248   0.00000  Uiso   1.00
N272   N     0.10164   0.84635   0.10497   0.00000  Uiso   1.00
N273   N     0.11321   0.58692   0.93587   0.00000  Uiso   1.00
N274   N     0.38132   0.78075   0.84631   0.00000  Uiso   1.00
N275   N     0.25685   0.83475   0.10880   0.00000  Uiso   1.00
N276   N     0.26841   0.57531   0.93970   0.00000  Uiso   1.00
C277   C     0.46388   0.06226   0.28567   0.00000  Uiso   1.00
C278   C     0.43138   0.09530   0.26751   0.00000  Uiso   1.00
C279   C     0.49130   0.11986   0.25401   0.00000  Uiso   1.00
C280   C     0.44759   0.14827   0.23839   0.00000  Uiso   1.00
C281   C     0.41235   0.19900   0.21048   0.00000  Uiso   1.00
C282   C     0.42951   0.02140   0.25998   0.00000  Uiso   1.00
C283   C     0.48784   0.98384   0.24015   0.00000  Uiso   1.00
C284   C     0.44254   0.95004   0.21818   0.00000  Uiso   1.00
C285   C     0.40438   0.88604   0.17860   0.00000  Uiso   1.00
C286   C     0.40455   0.07472   0.32696   0.00000  Uiso   1.00
C287   C     0.44189   0.08197   0.36345   0.00000  Uiso   1.00
C288   C     0.37558   0.09306   0.39787   0.00000  Uiso   1.00
C289   C     0.29867   0.11184   0.46229   0.00000  Uiso   1.00
C290   C     0.27971   0.06905   0.28193   0.00000  Uiso   1.00
C291   C     0.33135   0.09898   0.26548   0.00000  Uiso   1.00
C292   C     0.28753   0.12737   0.24987   0.00000  Uiso   1.00
C293   C     0.34737   0.15197   0.23635   0.00000  Uiso   1.00
C294   C     0.32948   0.02509   0.25794   0.00000  Uiso   1.00
C295   C     0.28408   0.99134   0.23600   0.00000  Uiso   1.00
C296   C     0.34233   0.95373   0.21614   0.00000  Uiso   1.00
C297   C     0.30451   0.07841   0.32492   0.00000  Uiso   1.00
C298   C     0.23813   0.08948   0.35930   0.00000  Uiso   1.00
C299   C     0.27537   0.09675   0.39583   0.00000  Uiso   1.00
H300   H     0.54176   0.05939   0.28725   0.00000  Uiso   1.00
H301   H     0.56871   0.11700   0.25559   0.00000  Uiso   1.00
H302   H     0.56525   0.98099   0.24173   0.00000  Uiso   1.00
H303   H     0.51931   0.07912   0.36501   0.00000  Uiso   1.00
H304   H     0.55448   0.18248   0.21957   0.00000  Uiso   1.00
H305   H     0.54718   0.89570   0.19036   0.00000  Uiso   1.00
H306   H     0.45030   0.10261   0.45032   0.00000  Uiso   1.00
H307   H     0.20183   0.07191   0.28034   0.00000  Uiso   1.00
H308   H     0.21012   0.13021   0.24830   0.00000  Uiso   1.00
H309   H     0.20667   0.99421   0.23444   0.00000  Uiso   1.00
H310   H     0.16072   0.09233   0.35772   0.00000  Uiso   1.00
H311   H     0.26343   0.19321   0.21365   0.00000  Uiso   1.00
H312   H     0.25614   0.90643   0.18444   0.00000  Uiso   1.00
H313   H     0.15926   0.11334   0.44440   0.00000  Uiso   1.00
O314   O     0.42055   0.22596   0.19564   0.00000  Uiso   1.00
O315   O     0.41097   0.84972   0.15732   0.00000  Uiso   1.00
O316   O     0.28387   0.12118   0.49838   0.00000  Uiso   1.00
N317   N     0.48484   0.17701   0.22258   0.00000  Uiso   1.00
N318   N     0.47802   0.90889   0.19526   0.00000  Uiso   1.00
N319   N     0.38745   0.10233   0.43830   0.00000  Uiso   1.00
N320   N     0.32823   0.18278   0.21940   0.00000  Uiso   1.00
N321   N     0.32141   0.91466   0.19208   0.00000  Uiso   1.00
N322   N     0.23084   0.10810   0.43512   0.00000  Uiso   1.00
C323   C     0.72652   0.67365   0.64031   0.00000  Uiso   1.00
C324   C     0.66826   0.66943   0.67699   0.00000  Uiso   1.00
C325   C     0.69605   0.67993   0.71549   0.00000  Uiso   1.00
C326   C     0.63260   0.67375   0.74494   0.00000  Uiso   1.00
C327   C     0.55550   0.66967   0.80323   0.00000  Uiso   1.00
C328   C     0.66021   0.70115   0.62471   0.00000  Uiso   1.00
C329   C     0.68126   0.73832   0.61925   0.00000  Uiso   1.00
C330   C     0.61103   0.75883   0.60468   0.00000  Uiso   1.00
C331   C     0.52148   0.80398   0.58179   0.00000  Uiso   1.00
C332   C     0.73999   0.63005   0.60815   0.00000  Uiso   1.00
C333   C     0.82811   0.60745   0.58875   0.00000  Uiso   1.00
C334   C     0.82505   0.56811   0.56024   0.00000  Uiso   1.00
C335   C     0.85937   0.50287   0.51163   0.00000  Uiso   1.00
C336   C     0.56441   0.64400   0.62415   0.00000  Uiso   1.00
C337   C     0.58020   0.65333   0.66821   0.00000  Uiso   1.00
C338   C     0.51669   0.64713   0.69761   0.00000  Uiso   1.00
C339   C     0.54439   0.65762   0.73614   0.00000  Uiso   1.00
C340   C     0.57216   0.68505   0.61593   0.00000  Uiso   1.00
C341   C     0.50189   0.70551   0.60137   0.00000  Uiso   1.00
C342   C     0.52282   0.74270   0.59589   0.00000  Uiso   1.00
C343   C     0.65194   0.61395   0.59937   0.00000  Uiso   1.00
C344   C     0.64875   0.57464   0.57088   0.00000  Uiso   1.00
C345   C     0.73684   0.55198   0.55144   0.00000  Uiso   1.00
H346   H     0.79507   0.68619   0.64714   0.00000  Uiso   1.00
H347   H     0.76420   0.69240   0.72227   0.00000  Uiso   1.00
H348   H     0.74941   0.75077   0.62604   0.00000  Uiso   1.00
H349   H     0.89624   0.61992   0.59556   0.00000  Uiso   1.00
H350   H     0.69112   0.69219   0.80170   0.00000  Uiso   1.00
H351   H     0.65995   0.81526   0.59878   0.00000  Uiso   1.00
H352   H     0.96957   0.53934   0.53449   0.00000  Uiso   1.00
H353   H     0.49585   0.63146   0.61731   0.00000  Uiso   1.00
H354   H     0.44855   0.63467   0.69080   0.00000  Uiso   1.00
H355   H     0.43376   0.69304   0.59458   0.00000  Uiso   1.00
H356   H     0.58059   0.56219   0.56409   0.00000  Uiso   1.00
H357   H     0.43493   0.64534   0.77616   0.00000  Uiso   1.00
H358   H     0.40376   0.76841   0.57324   0.00000  Uiso   1.00
H359   H     0.71337   0.49249   0.50895   0.00000  Uiso   1.00
O360   O     0.53729   0.67187   0.83782   0.00000  Uiso   1.00
O361   O     0.49641   0.83334   0.57159   0.00000  Uiso   1.00
O362   O     0.90262   0.47134   0.48725   0.00000  Uiso   1.00
N363   N     0.63732   0.68072   0.78560   0.00000  Uiso   1.00
N364   N     0.60817   0.79579   0.59589   0.00000  Uiso   1.00
N365   N     0.89764   0.53783   0.53578   0.00000  Uiso   1.00
N366   N     0.49947   0.65551   0.77186   0.00000  Uiso   1.00
N367   N     0.47032   0.77058   0.58215   0.00000  Uiso   1.00
N368   N     0.75979   0.51262   0.52203   0.00000  Uiso   1.00
C369   C     0.41757   0.32657   0.97440   0.00000  Uiso   1.00
C370   C     0.37927   0.29214   0.94126   0.00000  Uiso   1.00
C371   C     0.43275   0.25520   0.91591   0.00000  Uiso   1.00
C372   C     0.38443   0.22772   0.88755   0.00000  Uiso   1.00
C373   C     0.33988   0.17286   0.83655   0.00000  Uiso   1.00
C374   C     0.35275   0.33217   0.01321   0.00000  Uiso   1.00
C375   C     0.38393   0.32889   0.04834   0.00000  Uiso   1.00
C376   C     0.31329   0.33511   0.08055   0.00000  Uiso   1.00
C377   C     0.22758   0.34243   0.14126   0.00000  Uiso   1.00
C378   C     0.39673   0.36695   0.96511   0.00000  Uiso   1.00
C379   C     0.46489   0.39292   0.95981   0.00000  Uiso   1.00
C380   C     0.43127   0.42843   0.95153   0.00000  Uiso   1.00
C381   C     0.41385   0.48974   0.93756   0.00000  Uiso   1.00
C382   C     0.23667   0.34344   0.96913   0.00000  Uiso   1.00
C383   C     0.28100   0.30131   0.93840   0.00000  Uiso   1.00
C384   C     0.23259   0.27388   0.91007   0.00000  Uiso   1.00
C385   C     0.28599   0.23690   0.88468   0.00000  Uiso   1.00
C386   C     0.25449   0.34134   0.01035   0.00000  Uiso   1.00
C387   C     0.18378   0.34757   0.04251   0.00000  Uiso   1.00
C388   C     0.21485   0.34429   0.07768   0.00000  Uiso   1.00
C389   C     0.29847   0.37612   0.96225   0.00000  Uiso   1.00
C390   C     0.26474   0.41159   0.95398   0.00000  Uiso   1.00
C391   C     0.33283   0.43761   0.94867   0.00000  Uiso   1.00
H392   H     0.49407   0.31943   0.97663   0.00000  Uiso   1.00
H393   H     0.50879   0.24812   0.91814   0.00000  Uiso   1.00
H394   H     0.45998   0.32180   0.05055   0.00000  Uiso   1.00
H395   H     0.54092   0.38582   0.96203   0.00000  Uiso   1.00
H396   H     0.48176   0.17309   0.85203   0.00000  Uiso   1.00
H397   H     0.37885   0.32847   0.13124   0.00000  Uiso   1.00
H398   H     0.54954   0.46346   0.94458   0.00000  Uiso   1.00
H399   H     0.16016   0.35058   0.96690   0.00000  Uiso   1.00
H400   H     0.15655   0.28098   0.90787   0.00000  Uiso   1.00
H401   H     0.10775   0.35466   0.04028   0.00000  Uiso   1.00
H402   H     0.18869   0.41867   0.95176   0.00000  Uiso   1.00
H403   H     0.19587   0.19976   0.84370   0.00000  Uiso   1.00
H404   H     0.09297   0.35514   0.12291   0.00000  Uiso   1.00
H405   H     0.26365   0.49013   0.93625   0.00000  Uiso   1.00
O406   O     0.34246   0.14007   0.80922   0.00000  Uiso   1.00
O407   O     0.20745   0.34393   0.17553   0.00000  Uiso   1.00
O408   O     0.43139   0.52103   0.93064   0.00000  Uiso   1.00
N409   N     0.41497   0.18893   0.85816   0.00000  Uiso   1.00
N410   N     0.31876   0.33419   0.11921   0.00000  Uiso   1.00
N411   N     0.47834   0.46040   0.94471   0.00000  Uiso   1.00
N412   N     0.26114   0.20328   0.85368   0.00000  Uiso   1.00
N413   N     0.16493   0.34854   0.11472   0.00000  Uiso   1.00
N414   N     0.32450   0.47475   0.94022   0.00000  Uiso   1.00
C415   C     0.19840   0.71728   0.70016   0.00000  Uiso   1.00
C416   C     0.13225   0.75299   0.69562   0.00000  Uiso   1.00
C417   C     0.15534   0.79344   0.70146   0.00000  Uiso   1.00
C418   C     0.08489   0.82156   0.69584   0.00000  Uiso   1.00
C419   C     0.99589   0.87884   0.69049   0.00000  Uiso   1.00
C420   C     0.14234   0.70246   0.73090   0.00000  Uiso   1.00
C421   C     0.17392   0.70042   0.76640   0.00000  Uiso   1.00
C422   C     0.11197   0.68600   0.79047   0.00000  Uiso   1.00
C423   C     0.03866   0.66480   0.83988   0.00000  Uiso   1.00
C424   C     0.20672   0.68130   0.66000   0.00000  Uiso   1.00
C425   C     0.29244   0.66146   0.63589   0.00000  Uiso   1.00
C426   C     0.28470   0.62921   0.60028   0.00000  Uiso   1.00
C427   C     0.31136   0.57515   0.53961   0.00000  Uiso   1.00
C428   C     0.03223   0.69527   0.67979   0.00000  Uiso   1.00
C429   C     0.04199   0.74104   0.68456   0.00000  Uiso   1.00
C430   C     0.97149   0.76910   0.67893   0.00000  Uiso   1.00
C431   C     0.99447   0.80959   0.68475   0.00000  Uiso   1.00
C432   C     0.05209   0.69051   0.71984   0.00000  Uiso   1.00
C433   C     0.99007   0.67608   0.74387   0.00000  Uiso   1.00
C434   C     0.02155   0.67402   0.77939   0.00000  Uiso   1.00
C435   C     0.11647   0.66935   0.64894   0.00000  Uiso   1.00
C436   C     0.10859   0.63712   0.61336   0.00000  Uiso   1.00
C437   C     0.19428   0.61723   0.58920   0.00000  Uiso   1.00
H438   H     0.26866   0.72658   0.70877   0.00000  Uiso   1.00
H439   H     0.22519   0.80268   0.71002   0.00000  Uiso   1.00
H440   H     0.24377   0.70967   0.77494   0.00000  Uiso   1.00
H441   H     0.36227   0.67071   0.64446   0.00000  Uiso   1.00
H442   H     0.13718   0.88179   0.70654   0.00000  Uiso   1.00
H443   H     0.17637   0.68566   0.84343   0.00000  Uiso   1.00
H444   H     0.42625   0.60351   0.56828   0.00000  Uiso   1.00
H445   H     0.96196   0.68597   0.67118   0.00000  Uiso   1.00
H446   H     0.90165   0.75984   0.67037   0.00000  Uiso   1.00
H447   H     0.92024   0.66683   0.73530   0.00000  Uiso   1.00
H448   H     0.03873   0.62787   0.60481   0.00000  Uiso   1.00
H449   H     0.87458   0.84702   0.67436   0.00000  Uiso   1.00
H450   H     0.91378   0.65089   0.81125   0.00000  Uiso   1.00
H451   H     0.16366   0.56874   0.53610   0.00000  Uiso   1.00
O452   O     0.97173   0.91373   0.69061   0.00000  Uiso   1.00
O453   O     0.02316   0.65642   0.87020   0.00000  Uiso   1.00
O454   O     0.35100   0.54864   0.50920   0.00000  Uiso   1.00
N455   N     0.08366   0.86346   0.69907   0.00000  Uiso   1.00
N456   N     0.12030   0.68010   0.82706   0.00000  Uiso   1.00
N457   N     0.35392   0.60329   0.56982   0.00000  Uiso   1.00
N458   N     0.94236   0.84475   0.68175   0.00000  Uiso   1.00
N459   N     0.97899   0.66139   0.80974   0.00000  Uiso   1.00
N460   N     0.21262   0.58458   0.55250   0.00000  Uiso   1.00
C461   C     0.95763   0.99288   0.36256   0.00000  Uiso   1.00
C462   C     0.92643   0.96555   0.32293   0.00000  Uiso   1.00
C463   C     0.98518   0.94871   0.28637   0.00000  Uiso   1.00
C464   C     0.94298   0.92455   0.25361   0.00000  Uiso   1.00
C465   C     0.90934   0.88319   0.19150   0.00000  Uiso   1.00
C466   C     0.88855   0.03343   0.37660   0.00000  Uiso   1.00
C467   C     0.91546   0.07368   0.38516   0.00000  Uiso   1.00
C468   C     0.84136   0.10667   0.39758   0.00000  Uiso   1.00
C469   C     0.74892   0.17071   0.41882   0.00000  Uiso   1.00
C470   C     0.93496   0.97078   0.39285   0.00000  Uiso   1.00
C471   C     0.00087   0.95835   0.41509   0.00000  Uiso   1.00
C472   C     0.96584   0.93859   0.44121   0.00000  Uiso   1.00
C473   C     0.94545   0.90535   0.48769   0.00000  Uiso   1.00
C474   C     0.77821   0.97990   0.36942   0.00000  Uiso   1.00
C475   C     0.82898   0.95849   0.32666   0.00000  Uiso   1.00
C476   C     0.78667   0.93435   0.29395   0.00000  Uiso   1.00
C477   C     0.84535   0.91749   0.25734   0.00000  Uiso   1.00
C478   C     0.79110   0.02638   0.38032   0.00000  Uiso   1.00
C479   C     0.71695   0.05932   0.39274   0.00000  Uiso   1.00
C480   C     0.74373   0.09961   0.40131   0.00000  Uiso   1.00
C481   C     0.83750   0.96372   0.39658   0.00000  Uiso   1.00
C482   C     0.80236   0.94398   0.42267   0.00000  Uiso   1.00
C483   C     0.86821   0.93153   0.44494   0.00000  Uiso   1.00
H484   H     0.03350   0.99838   0.35967   0.00000  Uiso   1.00
H485   H     0.06059   0.95418   0.28349   0.00000  Uiso   1.00
H486   H     0.99088   0.07913   0.38228   0.00000  Uiso   1.00
H487   H     0.07628   0.96381   0.41220   0.00000  Uiso   1.00
H488   H     0.04764   0.90209   0.20068   0.00000  Uiso   1.00
H489   H     0.90065   0.16555   0.40898   0.00000  Uiso   1.00
H490   H     0.08073   0.92238   0.47209   0.00000  Uiso   1.00
H491   H     0.70234   0.97441   0.37232   0.00000  Uiso   1.00
H492   H     0.71126   0.92890   0.29684   0.00000  Uiso   1.00
H493   H     0.64154   0.05385   0.39562   0.00000  Uiso   1.00
H494   H     0.72694   0.93853   0.42555   0.00000  Uiso   1.00
H495   H     0.76411   0.88157   0.21151   0.00000  Uiso   1.00
H496   H     0.61711   0.14503   0.41982   0.00000  Uiso   1.00
H497   H     0.79720   0.90186   0.48292   0.00000  Uiso   1.00
O498   O     0.91771   0.86233   0.15622   0.00000  Uiso   1.00
O499   O     0.72486   0.20799   0.42950   0.00000  Uiso   1.00
O500   O     0.96113   0.88896   0.51229   0.00000  Uiso   1.00
N501   N     0.97969   0.90350   0.21359   0.00000  Uiso   1.00
N502   N     0.84226   0.14982   0.40834   0.00000  Uiso   1.00
N503   N     0.01062   0.92249   0.46734   0.00000  Uiso   1.00
N504   N     0.82712   0.89246   0.21942   0.00000  Uiso   1.00
N505   N     0.68969   0.13878   0.41416   0.00000  Uiso   1.00
N506   N     0.85805   0.91145   0.47317   0.00000  Uiso   1.00
C507   C     0.86666   0.25711   0.03926   0.00000  Uiso   1.00
C508   C     0.80317   0.24632   0.07092   0.00000  Uiso   1.00
C509   C     0.83623   0.23078   0.09967   0.00000  Uiso   1.00
C510   C     0.76657   0.22290   0.12592   0.00000  Uiso   1.00
C511   C     0.68305   0.20500   0.17544   0.00000  Uiso   1.00
C512   C     0.83747   0.23143   0.99857   0.00000  Uiso   1.00
C513   C     0.89938   0.20338   0.96650   0.00000  Uiso   1.00
C514   C     0.85859   0.18297   0.93185   0.00000  Uiso   1.00
C515   C     0.82834   0.14197   0.86905   0.00000  Uiso   1.00
C516   C     0.83428   0.30293   0.04518   0.00000  Uiso   1.00
C517   C     0.89351   0.33500   0.05229   0.00000  Uiso   1.00
C518   C     0.85004   0.37479   0.05687   0.00000  Uiso   1.00
C519   C     0.81484   0.44481   0.06644   0.00000  Uiso   1.00
C520   C     0.68414   0.27076   0.03475   0.00000  Uiso   1.00
C521   C     0.70403   0.25374   0.06847   0.00000  Uiso   1.00
C522   C     0.63429   0.24588   0.09468   0.00000  Uiso   1.00
C523   C     0.66725   0.23033   0.12347   0.00000  Uiso   1.00
C524   C     0.73833   0.23885   0.99612   0.00000  Uiso   1.00
C525   C     0.69744   0.21848   0.96151   0.00000  Uiso   1.00
C526   C     0.75927   0.19039   0.92940   0.00000  Uiso   1.00
C527   C     0.73514   0.31035   0.04274   0.00000  Uiso   1.00
C528   C     0.69157   0.35010   0.04731   0.00000  Uiso   1.00
C529   C     0.75072   0.38221   0.05442   0.00000  Uiso   1.00
H530   H     0.94385   0.25134   0.04116   0.00000  Uiso   1.00
H531   H     0.91296   0.22504   0.10155   0.00000  Uiso   1.00
H532   H     0.97610   0.19765   0.96840   0.00000  Uiso   1.00
H533   H     0.97023   0.32925   0.05418   0.00000  Uiso   1.00
H534   H     0.83500   0.19914   0.16742   0.00000  Uiso   1.00
H535   H     0.96813   0.14139   0.88666   0.00000  Uiso   1.00
H536   H     0.95576   0.41889   0.06754   0.00000  Uiso   1.00
H537   H     0.60695   0.27653   0.03284   0.00000  Uiso   1.00
H538   H     0.55758   0.25162   0.09278   0.00000  Uiso   1.00
H539   H     0.62072   0.22422   0.95963   0.00000  Uiso   1.00
H540   H     0.61485   0.35582   0.04541   0.00000  Uiso   1.00
H541   H     0.54655   0.22071   0.16030   0.00000  Uiso   1.00
H542   H     0.67969   0.16296   0.87954   0.00000  Uiso   1.00
H543   H     0.66731   0.44046   0.06042   0.00000  Uiso   1.00
O544   O     0.66437   0.19307   0.20343   0.00000  Uiso   1.00
O545   O     0.83905   0.11731   0.83508   0.00000  Uiso   1.00
O546   O     0.82281   0.48138   0.07240   0.00000  Uiso   1.00
N547   N     0.77389   0.20764   0.15752   0.00000  Uiso   1.00
N548   N     0.89836   0.15365   0.89503   0.00000  Uiso   1.00
N549   N     0.88679   0.41308   0.06413   0.00000  Uiso   1.00
N550   N     0.61868   0.21925   0.15369   0.00000  Uiso   1.00
N551   N     0.74315   0.16525   0.89120   0.00000  Uiso   1.00
N552   N     0.73159   0.42469   0.06030   0.00000  Uiso   1.00
