data_job_06134
_audit_creation_date              2018-12-19
_audit_creation_method            'Materials Studio'
_symmetry_space_group_name_H-M    'P1'
_symmetry_Int_Tables_number       1
_symmetry_cell_setting            triclinic
loop_
_symmetry_equiv_pos_as_xyz
  x,y,z
_cell_length_a                    15.8517
_cell_length_b                    15.8339
_cell_length_c                    15.8075
_cell_angle_alpha                 94.4510
_cell_angle_beta                  94.2834
_cell_angle_gamma                 94.0854
loop_
_atom_site_label
_atom_site_type_symbol
_atom_site_fract_x
_atom_site_fract_y
_atom_site_fract_z
_atom_site_U_iso_or_equiv
_atom_site_adp_type
_atom_site_occupancy
C1     C     0.12439   0.63964   0.27250   0.00000  Uiso   1.00
C2     C     0.11405   0.69623   0.35303   0.00000  Uiso   1.00
C3     C     0.07198   0.77018   0.35686   0.00000  Uiso   1.00
C4     C     0.06954   0.81288   0.43663   0.00000  Uiso   1.00
C5     C     0.04770   0.90537   0.55053   0.00000  Uiso   1.00
C6     C     0.21960   0.63347   0.26855   0.00000  Uiso   1.00
C7     C     0.26627   0.65464   0.20133   0.00000  Uiso   1.00
C8     C     0.35269   0.64450   0.20998   0.00000  Uiso   1.00
C9     C     0.49470   0.63949   0.19269   0.00000  Uiso   1.00
C10    C     0.08784   0.55108   0.28835   0.00000  Uiso   1.00
C11    C     0.02373   0.50297   0.23777   0.00000  Uiso   1.00
C12    C     0.99923   0.42346   0.26308   0.00000  Uiso   1.00
C13    C     0.93665   0.29053   0.27653   0.00000  Uiso   1.00
C14    C     0.19488   0.58397   0.40738   0.00000  Uiso   1.00
C15    C     0.15234   0.66599   0.42630   0.00000  Uiso   1.00
C16    C     0.14996   0.70859   0.50609   0.00000  Uiso   1.00
C17    C     0.10789   0.78259   0.51003   0.00000  Uiso   1.00
C18    C     0.25789   0.60323   0.34181   0.00000  Uiso   1.00
C19    C     0.34426   0.59305   0.35056   0.00000  Uiso   1.00
C20    C     0.39105   0.61421   0.28338   0.00000  Uiso   1.00
C21    C     0.12612   0.52084   0.36161   0.00000  Uiso   1.00
C22    C     0.10172   0.44138   0.38700   0.00000  Uiso   1.00
C23    C     0.03758   0.39316   0.33647   0.00000  Uiso   1.00
H24    H     0.09459   0.66318   0.21546   0.00000  Uiso   1.00
H25    H     0.04236   0.79356   0.30014   0.00000  Uiso   1.00
H26    H     0.23663   0.67803   0.14464   0.00000  Uiso   1.00
H27    H     0.99412   0.52639   0.18108   0.00000  Uiso   1.00
H28    H     0.00137   0.92480   0.42634   0.00000  Uiso   1.00
H29    H     0.41098   0.68117   0.09843   0.00000  Uiso   1.00
H30    H     0.89961   0.36140   0.17526   0.00000  Uiso   1.00
H31    H     0.22469   0.56043   0.46442   0.00000  Uiso   1.00
H32    H     0.17960   0.68517   0.56277   0.00000  Uiso   1.00
H33    H     0.37386   0.56964   0.40726   0.00000  Uiso   1.00
H34    H     0.13136   0.41800   0.44370   0.00000  Uiso   1.00
H35    H     0.11276   0.83683   0.63949   0.00000  Uiso   1.00
H36    H     0.52237   0.59319   0.31158   0.00000  Uiso   1.00
H37    H     0.01100   0.27343   0.38842   0.00000  Uiso   1.00
O38    O     0.02508   0.96475   0.59312   0.00000  Uiso   1.00
O39    O     0.56246   0.64509   0.16291   0.00000  Uiso   1.00
O40    O     0.89156   0.22557   0.26372   0.00000  Uiso   1.00
N41    N     0.03376   0.88697   0.46301   0.00000  Uiso   1.00
N42    N     0.41672   0.65920   0.15644   0.00000  Uiso   1.00
N43    N     0.93865   0.36023   0.22826   0.00000  Uiso   1.00
N44    N     0.09370   0.83963   0.57771   0.00000  Uiso   1.00
N45    N     0.47666   0.61186   0.27114   0.00000  Uiso   1.00
N46    N     0.99858   0.31290   0.34296   0.00000  Uiso   1.00
C47    C     0.27293   0.12398   0.63884   0.00000  Uiso   1.00
C48    C     0.35317   0.11366   0.69538   0.00000  Uiso   1.00
C49    C     0.35694   0.07176   0.76933   0.00000  Uiso   1.00
C50    C     0.43643   0.06932   0.81198   0.00000  Uiso   1.00
C51    C     0.54989   0.04753   0.90440   0.00000  Uiso   1.00
C52    C     0.26885   0.21930   0.63295   0.00000  Uiso   1.00
C53    C     0.20173   0.26620   0.65441   0.00000  Uiso   1.00
C54    C     0.21023   0.35268   0.64450   0.00000  Uiso   1.00
C55    C     0.19276   0.49489   0.63995   0.00000  Uiso   1.00
C56    C     0.28892   0.08708   0.54998   0.00000  Uiso   1.00
C57    C     0.23865   0.02283   0.50166   0.00000  Uiso   1.00
C58    C     0.26404   0.99801   0.42189   0.00000  Uiso   1.00
C59    C     0.27773   0.93492   0.28852   0.00000  Uiso   1.00
C60    C     0.40737   0.19415   0.58309   0.00000  Uiso   1.00
C61    C     0.42619   0.15178   0.66509   0.00000  Uiso   1.00
C62    C     0.50568   0.14940   0.70765   0.00000  Uiso   1.00
C63    C     0.50958   0.10749   0.78165   0.00000  Uiso   1.00
C64    C     0.34187   0.25741   0.60267   0.00000  Uiso   1.00
C65    C     0.35047   0.34384   0.59273   0.00000  Uiso   1.00
C66    C     0.28338   0.39087   0.61417   0.00000  Uiso   1.00
C67    C     0.36194   0.12519   0.51970   0.00000  Uiso   1.00
C68    C     0.38740   0.10047   0.43999   0.00000  Uiso   1.00
C69    C     0.33719   0.03619   0.39156   0.00000  Uiso   1.00
H70    H     0.21608   0.09431   0.66241   0.00000  Uiso   1.00
H71    H     0.30042   0.04228   0.79274   0.00000  Uiso   1.00
H72    H     0.14523   0.23669   0.67783   0.00000  Uiso   1.00
H73    H     0.18215   0.99336   0.52512   0.00000  Uiso   1.00
H74    H     0.42612   0.00142   0.92391   0.00000  Uiso   1.00
H75    H     0.09887   0.41135   0.68158   0.00000  Uiso   1.00
H76    H     0.17673   0.89823   0.35955   0.00000  Uiso   1.00
H77    H     0.46422   0.22383   0.55951   0.00000  Uiso   1.00
H78    H     0.56218   0.17890   0.68420   0.00000  Uiso   1.00
H79    H     0.40698   0.37331   0.56929   0.00000  Uiso   1.00
H80    H     0.44391   0.12998   0.41657   0.00000  Uiso   1.00
H81    H     0.63857   0.11231   0.83581   0.00000  Uiso   1.00
H82    H     0.31132   0.52224   0.59348   0.00000  Uiso   1.00
H83    H     0.38919   0.00911   0.27145   0.00000  Uiso   1.00
O84    O     0.59230   0.02500   0.96375   0.00000  Uiso   1.00
O85    O     0.16296   0.56280   0.64581   0.00000  Uiso   1.00
O86    O     0.26512   0.88959   0.22332   0.00000  Uiso   1.00
N87    N     0.46268   0.03367   0.88605   0.00000  Uiso   1.00
N88    N     0.15673   0.41693   0.65950   0.00000  Uiso   1.00
N89    N     0.22951   0.93722   0.35842   0.00000  Uiso   1.00
N90    N     0.57700   0.09334   0.83864   0.00000  Uiso   1.00
N91    N     0.27105   0.47660   0.61210   0.00000  Uiso   1.00
N92    N     0.34383   0.99689   0.31101   0.00000  Uiso   1.00
C93    C     0.64055   0.27298   0.12361   0.00000  Uiso   1.00
C94    C     0.69681   0.35318   0.11344   0.00000  Uiso   1.00
C95    C     0.77058   0.35670   0.07136   0.00000  Uiso   1.00
C96    C     0.81299   0.43620   0.06910   0.00000  Uiso   1.00
C97    C     0.90497   0.54958   0.04749   0.00000  Uiso   1.00
C98    C     0.63456   0.26919   0.21909   0.00000  Uiso   1.00
C99    C     0.65600   0.20209   0.26585   0.00000  Uiso   1.00
C100   C     0.64599   0.21089   0.35252   0.00000  Uiso   1.00
C101   C     0.64128   0.19385   0.49494   0.00000  Uiso   1.00
C102   C     0.55199   0.28902   0.08682   0.00000  Uiso   1.00
C103   C     0.50398   0.23858   0.02238   0.00000  Uiso   1.00
C104   C     0.42445   0.26405   0.99770   0.00000  Uiso   1.00
C105   C     0.29154   0.27779   0.93474   0.00000  Uiso   1.00
C106   C     0.58466   0.40789   0.19440   0.00000  Uiso   1.00
C107   C     0.66644   0.42646   0.15189   0.00000  Uiso   1.00
C108   C     0.70874   0.50597   0.14969   0.00000  Uiso   1.00
C109   C     0.78257   0.50962   0.10761   0.00000  Uiso   1.00
C110   C     0.60420   0.34247   0.25755   0.00000  Uiso   1.00
C111   C     0.59415   0.35136   0.34417   0.00000  Uiso   1.00
C112   C     0.61558   0.28430   0.39105   0.00000  Uiso   1.00
C113   C     0.52163   0.36230   0.12527   0.00000  Uiso   1.00
C114   C     0.44215   0.38785   0.10070   0.00000  Uiso   1.00
C115   C     0.39403   0.33746   0.03622   0.00000  Uiso   1.00
H116   H     0.66419   0.21592   0.09368   0.00000  Uiso   1.00
H117   H     0.79406   0.29998   0.04162   0.00000  Uiso   1.00
H118   H     0.67948   0.14539   0.23607   0.00000  Uiso   1.00
H119   H     0.52750   0.18187   0.99264   0.00000  Uiso   1.00
H120   H     0.92468   0.42548   0.00089   0.00000  Uiso   1.00
H121   H     0.68306   0.09951   0.41089   0.00000  Uiso   1.00
H122   H     0.36257   0.17644   0.89756   0.00000  Uiso   1.00
H123   H     0.56102   0.46494   0.22435   0.00000  Uiso   1.00
H124   H     0.68523   0.56267   0.17945   0.00000  Uiso   1.00
H125   H     0.57066   0.40808   0.37391   0.00000  Uiso   1.00
H126   H     0.41867   0.44456   0.13047   0.00000  Uiso   1.00
H127   H     0.83635   0.63869   0.11276   0.00000  Uiso   1.00
H128   H     0.59473   0.31272   0.52277   0.00000  Uiso   1.00
H129   H     0.27424   0.38965   0.00944   0.00000  Uiso   1.00
O130   O     0.96410   0.59188   0.02496   0.00000  Uiso   1.00
O131   O     0.64709   0.16421   0.56287   0.00000  Uiso   1.00
O132   O     0.22662   0.26514   0.88939   0.00000  Uiso   1.00
N133   N     0.88683   0.46225   0.03336   0.00000  Uiso   1.00
N134   N     0.66095   0.15749   0.41670   0.00000  Uiso   1.00
N135   N     0.36131   0.22940   0.93679   0.00000  Uiso   1.00
N136   N     0.83931   0.57698   0.09356   0.00000  Uiso   1.00
N137   N     0.61342   0.27222   0.47689   0.00000  Uiso   1.00
N138   N     0.31378   0.34413   0.99699   0.00000  Uiso   1.00
C139   C     0.87561   0.36036   0.72750   0.00000  Uiso   1.00
C140   C     0.88595   0.30377   0.64697   0.00000  Uiso   1.00
C141   C     0.92802   0.22982   0.64314   0.00000  Uiso   1.00
C142   C     0.93046   0.18712   0.56337   0.00000  Uiso   1.00
C143   C     0.95230   0.09463   0.44947   0.00000  Uiso   1.00
C144   C     0.78040   0.36653   0.73145   0.00000  Uiso   1.00
C145   C     0.73373   0.34536   0.79867   0.00000  Uiso   1.00
C146   C     0.64731   0.35550   0.79002   0.00000  Uiso   1.00
C147   C     0.50530   0.36051   0.80731   0.00000  Uiso   1.00
C148   C     0.91216   0.44892   0.71165   0.00000  Uiso   1.00
C149   C     0.97627   0.49703   0.76223   0.00000  Uiso   1.00
C150   C     0.00077   0.57654   0.73692   0.00000  Uiso   1.00
C151   C     0.06335   0.70947   0.72347   0.00000  Uiso   1.00
C152   C     0.80512   0.41603   0.59262   0.00000  Uiso   1.00
C153   C     0.84766   0.33401   0.57370   0.00000  Uiso   1.00
C154   C     0.85004   0.29141   0.49391   0.00000  Uiso   1.00
C155   C     0.89211   0.21741   0.48997   0.00000  Uiso   1.00
C156   C     0.74211   0.39677   0.65819   0.00000  Uiso   1.00
C157   C     0.65574   0.40695   0.64944   0.00000  Uiso   1.00
C158   C     0.60895   0.38579   0.71662   0.00000  Uiso   1.00
C159   C     0.87388   0.47916   0.63839   0.00000  Uiso   1.00
C160   C     0.89828   0.55862   0.61300   0.00000  Uiso   1.00
C161   C     0.96242   0.60684   0.66353   0.00000  Uiso   1.00
H162   H     0.90541   0.33682   0.78454   0.00000  Uiso   1.00
H163   H     0.95764   0.20644   0.69986   0.00000  Uiso   1.00
H164   H     0.76337   0.32197   0.85536   0.00000  Uiso   1.00
H165   H     0.00588   0.47361   0.81892   0.00000  Uiso   1.00
H166   H     0.99863   0.07520   0.57366   0.00000  Uiso   1.00
H167   H     0.58902   0.31883   0.90157   0.00000  Uiso   1.00
H168   H     0.10039   0.63860   0.82474   0.00000  Uiso   1.00
H169   H     0.77531   0.43957   0.53558   0.00000  Uiso   1.00
H170   H     0.82040   0.31483   0.43723   0.00000  Uiso   1.00
H171   H     0.62614   0.43036   0.59274   0.00000  Uiso   1.00
H172   H     0.86864   0.58200   0.55630   0.00000  Uiso   1.00
H173   H     0.88724   0.16317   0.36051   0.00000  Uiso   1.00
H174   H     0.47763   0.40681   0.68842   0.00000  Uiso   1.00
H175   H     0.98900   0.72657   0.61158   0.00000  Uiso   1.00
O176   O     0.97492   0.03525   0.40688   0.00000  Uiso   1.00
O177   O     0.43754   0.35490   0.83709   0.00000  Uiso   1.00
O178   O     0.10844   0.77443   0.73628   0.00000  Uiso   1.00
N179   N     0.96624   0.11303   0.53699   0.00000  Uiso   1.00
N180   N     0.58328   0.34080   0.84356   0.00000  Uiso   1.00
N181   N     0.06135   0.63977   0.77174   0.00000  Uiso   1.00
N182   N     0.90630   0.16037   0.42229   0.00000  Uiso   1.00
N183   N     0.52334   0.38814   0.72886   0.00000  Uiso   1.00
N184   N     0.00142   0.68710   0.65704   0.00000  Uiso   1.00
C185   C     0.72707   0.87602   0.36116   0.00000  Uiso   1.00
C186   C     0.64683   0.88634   0.30462   0.00000  Uiso   1.00
C187   C     0.64306   0.92824   0.23067   0.00000  Uiso   1.00
C188   C     0.56357   0.93068   0.18802   0.00000  Uiso   1.00
C189   C     0.45011   0.95247   0.09560   0.00000  Uiso   1.00
C190   C     0.73115   0.78070   0.36705   0.00000  Uiso   1.00
C191   C     0.79827   0.73380   0.34559   0.00000  Uiso   1.00
C192   C     0.78977   0.64732   0.35550   0.00000  Uiso   1.00
C193   C     0.80724   0.50511   0.36005   0.00000  Uiso   1.00
C194   C     0.71108   0.91292   0.45002   0.00000  Uiso   1.00
C195   C     0.76135   0.97717   0.49834   0.00000  Uiso   1.00
C196   C     0.73596   0.00199   0.57811   0.00000  Uiso   1.00
C197   C     0.72227   0.06508   0.71148   0.00000  Uiso   1.00
C198   C     0.59263   0.80585   0.41691   0.00000  Uiso   1.00
C199   C     0.57381   0.84822   0.33491   0.00000  Uiso   1.00
C200   C     0.49432   0.85060   0.29235   0.00000  Uiso   1.00
C201   C     0.49042   0.89250   0.21835   0.00000  Uiso   1.00
C202   C     0.65813   0.74259   0.39733   0.00000  Uiso   1.00
C203   C     0.64953   0.65616   0.40727   0.00000  Uiso   1.00
C204   C     0.71662   0.60913   0.38583   0.00000  Uiso   1.00
C205   C     0.63806   0.87481   0.48030   0.00000  Uiso   1.00
C206   C     0.61260   0.89953   0.56001   0.00000  Uiso   1.00
C207   C     0.66281   0.96381   0.60844   0.00000  Uiso   1.00
H208   H     0.78392   0.90569   0.33759   0.00000  Uiso   1.00
H209   H     0.69958   0.95772   0.20726   0.00000  Uiso   1.00
H210   H     0.85477   0.76331   0.32217   0.00000  Uiso   1.00
H211   H     0.81785   0.00664   0.47488   0.00000  Uiso   1.00
H212   H     0.57388   0.99857   0.07609   0.00000  Uiso   1.00
H213   H     0.90113   0.58865   0.31842   0.00000  Uiso   1.00
H214   H     0.82327   0.10177   0.64045   0.00000  Uiso   1.00
H215   H     0.53578   0.77617   0.44049   0.00000  Uiso   1.00
H216   H     0.43782   0.82110   0.31580   0.00000  Uiso   1.00
H217   H     0.59302   0.62669   0.43071   0.00000  Uiso   1.00
H218   H     0.55609   0.87002   0.58343   0.00000  Uiso   1.00
H219   H     0.36143   0.88769   0.16419   0.00000  Uiso   1.00
H220   H     0.68868   0.47776   0.40652   0.00000  Uiso   1.00
H221   H     0.61081   0.99088   0.72855   0.00000  Uiso   1.00
O222   O     0.40770   0.97500   0.03625   0.00000  Uiso   1.00
O223   O     0.83704   0.43720   0.35419   0.00000  Uiso   1.00
O224   O     0.73488   0.11041   0.77668   0.00000  Uiso   1.00
N225   N     0.53732   0.96633   0.11395   0.00000  Uiso   1.00
N226   N     0.84327   0.58307   0.34050   0.00000  Uiso   1.00
N227   N     0.77049   0.06278   0.64158   0.00000  Uiso   1.00
N228   N     0.42300   0.90666   0.16136   0.00000  Uiso   1.00
N229   N     0.72895   0.52340   0.38790   0.00000  Uiso   1.00
N230   N     0.65617   0.00311   0.68899   0.00000  Uiso   1.00
C231   C     0.35945   0.72702   0.87639   0.00000  Uiso   1.00
C232   C     0.30319   0.64682   0.88656   0.00000  Uiso   1.00
C233   C     0.22942   0.64330   0.92864   0.00000  Uiso   1.00
C234   C     0.18701   0.56380   0.93090   0.00000  Uiso   1.00
C235   C     0.09503   0.45042   0.95251   0.00000  Uiso   1.00
C236   C     0.36544   0.73081   0.78091   0.00000  Uiso   1.00
C237   C     0.34400   0.79791   0.73415   0.00000  Uiso   1.00
C238   C     0.35401   0.78911   0.64748   0.00000  Uiso   1.00
C239   C     0.35872   0.80615   0.50506   0.00000  Uiso   1.00
C240   C     0.44801   0.71098   0.91318   0.00000  Uiso   1.00
C241   C     0.49602   0.76142   0.97762   0.00000  Uiso   1.00
C242   C     0.57555   0.73595   0.00230   0.00000  Uiso   1.00
C243   C     0.70846   0.72221   0.06526   0.00000  Uiso   1.00
C244   C     0.41534   0.59211   0.80560   0.00000  Uiso   1.00
C245   C     0.33356   0.57354   0.84811   0.00000  Uiso   1.00
C246   C     0.29126   0.49403   0.85031   0.00000  Uiso   1.00
C247   C     0.21743   0.49038   0.89239   0.00000  Uiso   1.00
C248   C     0.39580   0.65753   0.74245   0.00000  Uiso   1.00
C249   C     0.40585   0.64864   0.65583   0.00000  Uiso   1.00
C250   C     0.38442   0.71570   0.60895   0.00000  Uiso   1.00
C251   C     0.47837   0.63770   0.87473   0.00000  Uiso   1.00
C252   C     0.55785   0.61215   0.89930   0.00000  Uiso   1.00
C253   C     0.60597   0.66254   0.96378   0.00000  Uiso   1.00
H254   H     0.33581   0.78408   0.90632   0.00000  Uiso   1.00
H255   H     0.20594   0.70002   0.95838   0.00000  Uiso   1.00
H256   H     0.32052   0.85461   0.76393   0.00000  Uiso   1.00
H257   H     0.47250   0.81813   0.00736   0.00000  Uiso   1.00
H258   H     0.07532   0.57452   0.99911   0.00000  Uiso   1.00
H259   H     0.31694   0.90049   0.58911   0.00000  Uiso   1.00
H260   H     0.63743   0.82356   0.10244   0.00000  Uiso   1.00
H261   H     0.43898   0.53506   0.77566   0.00000  Uiso   1.00
H262   H     0.31477   0.43733   0.82055   0.00000  Uiso   1.00
H263   H     0.42934   0.59192   0.62609   0.00000  Uiso   1.00
H264   H     0.58133   0.55544   0.86953   0.00000  Uiso   1.00
H265   H     0.16365   0.36131   0.88724   0.00000  Uiso   1.00
H266   H     0.40527   0.68728   0.47723   0.00000  Uiso   1.00
H267   H     0.72576   0.61035   0.99056   0.00000  Uiso   1.00
O268   O     0.03590   0.40812   0.97504   0.00000  Uiso   1.00
O269   O     0.35291   0.83579   0.43713   0.00000  Uiso   1.00
O270   O     0.77338   0.73486   0.11061   0.00000  Uiso   1.00
N271   N     0.11317   0.53775   0.96664   0.00000  Uiso   1.00
N272   N     0.33905   0.84251   0.58330   0.00000  Uiso   1.00
N273   N     0.63869   0.77060   0.06321   0.00000  Uiso   1.00
N274   N     0.16069   0.42302   0.90644   0.00000  Uiso   1.00
N275   N     0.38658   0.72778   0.52311   0.00000  Uiso   1.00
N276   N     0.68622   0.65587   0.00301   0.00000  Uiso   1.00
