data_job_06612
_audit_creation_date              2018-12-19
_audit_creation_method            'Materials Studio'
_symmetry_space_group_name_H-M    'P1'
_symmetry_Int_Tables_number       1
_symmetry_cell_setting            triclinic
loop_
_symmetry_equiv_pos_as_xyz
  x,y,z
_cell_length_a                    19.7197
_cell_length_b                    21.3946
_cell_length_c                    21.8402
_cell_angle_alpha                 119.3020
_cell_angle_beta                  83.5733
_cell_angle_gamma                 74.2069
loop_
_atom_site_label
_atom_site_type_symbol
_atom_site_fract_x
_atom_site_fract_y
_atom_site_fract_z
_atom_site_U_iso_or_equiv
_atom_site_adp_type
_atom_site_occupancy
C1     C     0.99221   0.08765   0.80728   0.00000  Uiso   1.00
C2     C     0.96943   0.10564   0.75144   0.00000  Uiso   1.00
C3     C     0.97351   0.16704   0.74687   0.00000  Uiso   1.00
C4     C     0.94996   0.17352   0.69193   0.00000  Uiso   1.00
C5     C     0.91861   0.20956   0.61264   0.00000  Uiso   1.00
C6     C     0.92459   0.08548   0.84633   0.00000  Uiso   1.00
C7     C     0.89098   0.12991   0.92154   0.00000  Uiso   1.00
C8     C     0.82969   0.11941   0.94647   0.00000  Uiso   1.00
C9     C     0.72876   0.12410   0.01451   0.00000  Uiso   1.00
C10    C     0.04897   0.00490   0.76277   0.00000  Uiso   1.00
C11    C     0.11993   0.98157   0.76774   0.00000  Uiso   1.00
C12    C     0.16336   0.90323   0.72233   0.00000  Uiso   1.00
C13    C     0.25555   0.78281   0.66063   0.00000  Uiso   1.00
C14    C     0.94313   0.98998   0.71782   0.00000  Uiso   1.00
C15    C     0.94277   0.05260   0.70285   0.00000  Uiso   1.00
C16    C     0.91921   0.05899   0.64790   0.00000  Uiso   1.00
C17    C     0.92326   0.12038   0.64325   0.00000  Uiso   1.00
C18    C     0.89793   0.03243   0.79775   0.00000  Uiso   1.00
C19    C     0.83668   0.02186   0.82257   0.00000  Uiso   1.00
C20    C     0.80299   0.06627   0.89780   0.00000  Uiso   1.00
C21    C     0.02231   0.95185   0.71418   0.00000  Uiso   1.00
C22    C     0.06563   0.87353   0.66876   0.00000  Uiso   1.00
C23    C     0.13665   0.85009   0.67366   0.00000  Uiso   1.00
H24    H     0.01296   0.12894   0.84511   0.00000  Uiso   1.00
H25    H     0.99414   0.20808   0.78449   0.00000  Uiso   1.00
H26    H     0.91162   0.17095   0.95913   0.00000  Uiso   1.00
H27    H     0.14054   0.02264   0.80535   0.00000  Uiso   1.00
H28    H     0.96149   0.27244   0.69587   0.00000  Uiso   1.00
H29    H     0.78752   0.19413   0.06411   0.00000  Uiso   1.00
H30    H     0.27024   0.88139   0.73983   0.00000  Uiso   1.00
H31    H     0.92238   0.94869   0.68000   0.00000  Uiso   1.00
H32    H     0.89859   0.01793   0.61031   0.00000  Uiso   1.00
H33    H     0.81607   0.98080   0.78495   0.00000  Uiso   1.00
H34    H     0.04499   0.83249   0.63117   0.00000  Uiso   1.00
H35    H     0.88393   0.11811   0.55449   0.00000  Uiso   1.00
H36    H     0.70997   0.03980   0.92274   0.00000  Uiso   1.00
H37    H     0.19269   0.72706   0.59846   0.00000  Uiso   1.00
O38    O     0.90867   0.24410   0.58233   0.00000  Uiso   1.00
O39    O     0.68045   0.14135   0.06546   0.00000  Uiso   1.00
O40    O     0.31376   0.73104   0.64001   0.00000  Uiso   1.00
N41    N     0.94652   0.22661   0.67215   0.00000  Uiso   1.00
N42    N     0.78386   0.15340   0.01644   0.00000  Uiso   1.00
N43    N     0.23515   0.86101   0.71327   0.00000  Uiso   1.00
N44    N     0.90478   0.14356   0.59608   0.00000  Uiso   1.00
N45    N     0.74213   0.07036   0.94037   0.00000  Uiso   1.00
N46    N     0.19342   0.77797   0.63720   0.00000  Uiso   1.00
C47    C     0.07684   0.66528   0.96695   0.00000  Uiso   1.00
C48    C     0.03631   0.60975   0.94503   0.00000  Uiso   1.00
C49    C     0.05554   0.54184   0.87691   0.00000  Uiso   1.00
C50    C     0.01142   0.49907   0.86777   0.00000  Uiso   1.00
C51    C     0.95777   0.40916   0.82505   0.00000  Uiso   1.00
C52    C     0.01964   0.74415   0.99290   0.00000  Uiso   1.00
C53    C     0.02487   0.78925   0.96505   0.00000  Uiso   1.00
C54    C     0.96672   0.85963   0.99621   0.00000  Uiso   1.00
C55    C     0.88721   0.97840   0.02786   0.00000  Uiso   1.00
C56    C     0.09741   0.67266   0.03478   0.00000  Uiso   1.00
C57    C     0.16804   0.65767   0.04216   0.00000  Uiso   1.00
C58    C     0.17536   0.66787   0.10859   0.00000  Uiso   1.00
C59    C     0.21662   0.67565   0.20527   0.00000  Uiso   1.00
C60    C     0.96426   0.71010   0.07183   0.00000  Uiso   1.00
C61    C     0.97516   0.63409   0.00199   0.00000  Uiso   1.00
C62    C     0.93099   0.59142   0.99295   0.00000  Uiso   1.00
C63    C     0.95017   0.52345   0.92483   0.00000  Uiso   1.00
C64    C     0.95849   0.76849   0.04987   0.00000  Uiso   1.00
C65    C     0.90032   0.83883   0.08108   0.00000  Uiso   1.00
C66    C     0.90546   0.88401   0.05328   0.00000  Uiso   1.00
C67    C     0.03627   0.69700   0.09175   0.00000  Uiso   1.00
C68    C     0.04349   0.70724   0.15819   0.00000  Uiso   1.00
C69    C     0.11411   0.69226   0.16566   0.00000  Uiso   1.00
H70    H     0.12444   0.64634   0.92260   0.00000  Uiso   1.00
H71    H     0.10286   0.52303   0.83284   0.00000  Uiso   1.00
H72    H     0.07220   0.77040   0.92097   0.00000  Uiso   1.00
H73    H     0.21534   0.63883   0.99806   0.00000  Uiso   1.00
H74    H     0.05196   0.39706   0.75844   0.00000  Uiso   1.00
H75    H     0.98732   0.91867   0.94428   0.00000  Uiso   1.00
H76    H     0.28917   0.64124   0.10685   0.00000  Uiso   1.00
H77    H     0.91665   0.72905   0.11618   0.00000  Uiso   1.00
H78    H     0.88368   0.61027   0.03704   0.00000  Uiso   1.00
H79    H     0.85301   0.85764   0.12517   0.00000  Uiso   1.00
H80    H     0.99616   0.72608   0.20226   0.00000  Uiso   1.00
H81    H     0.87406   0.46787   0.92417   0.00000  Uiso   1.00
H82    H     0.80942   0.98948   0.11002   0.00000  Uiso   1.00
H83    H     0.11126   0.71205   0.27259   0.00000  Uiso   1.00
O84    O     0.94506   0.35285   0.78575   0.00000  Uiso   1.00
O85    O     0.86025   0.03719   0.02957   0.00000  Uiso   1.00
O86    O     0.25627   0.67320   0.24286   0.00000  Uiso   1.00
N87    N     0.01463   0.43002   0.80831   0.00000  Uiso   1.00
N88    N     0.95418   0.91769   0.98205   0.00000  Uiso   1.00
N89    N     0.23638   0.65833   0.13405   0.00000  Uiso   1.00
N90    N     0.91890   0.46812   0.89749   0.00000  Uiso   1.00
N91    N     0.85845   0.95579   0.07123   0.00000  Uiso   1.00
N92    N     0.14066   0.69644   0.22323   0.00000  Uiso   1.00
C93    C     0.88556   0.30061   0.36008   0.00000  Uiso   1.00
C94    C     0.86952   0.35745   0.44222   0.00000  Uiso   1.00
C95    C     0.88566   0.33791   0.49231   0.00000  Uiso   1.00
C96    C     0.86659   0.39838   0.56502   0.00000  Uiso   1.00
C97    C     0.84682   0.47490   0.68926   0.00000  Uiso   1.00
C98    C     0.81190   0.31705   0.34363   0.00000  Uiso   1.00
C99    C     0.77959   0.26354   0.31082   0.00000  Uiso   1.00
C100   C     0.71202   0.29000   0.30053   0.00000  Uiso   1.00
C101   C     0.60281   0.30377   0.27165   0.00000  Uiso   1.00
C102   C     0.93238   0.32474   0.32184   0.00000  Uiso   1.00
C103   C     0.00138   0.27769   0.27069   0.00000  Uiso   1.00
C104   C     0.03524   0.31063   0.24205   0.00000  Uiso   1.00
C105   C     0.11310   0.33635   0.17935   0.00000  Uiso   1.00
C106   C     0.82299   0.44276   0.40014   0.00000  Uiso   1.00
C107   C     0.83553   0.43466   0.46398   0.00000  Uiso   1.00
C108   C     0.81643   0.49518   0.53664   0.00000  Uiso   1.00
C109   C     0.83254   0.47573   0.58682   0.00000  Uiso   1.00
C110   C     0.77791   0.39425   0.36539   0.00000  Uiso   1.00
C111   C     0.71036   0.42080   0.35514   0.00000  Uiso   1.00
C112   C     0.67797   0.36735   0.32233   0.00000  Uiso   1.00
C113   C     0.89840   0.40195   0.34361   0.00000  Uiso   1.00
C114   C     0.93215   0.43496   0.31503   0.00000  Uiso   1.00
C115   C     0.00119   0.38798   0.26385   0.00000  Uiso   1.00
H116   H     0.91202   0.24050   0.34314   0.00000  Uiso   1.00
H117   H     0.91196   0.27815   0.47545   0.00000  Uiso   1.00
H118   H     0.80591   0.20379   0.29398   0.00000  Uiso   1.00
H119   H     0.02766   0.21795   0.25387   0.00000  Uiso   1.00
H120   H     0.89688   0.35395   0.63174   0.00000  Uiso   1.00
H121   H     0.67329   0.19714   0.24908   0.00000  Uiso   1.00
H122   H     0.14089   0.22700   0.16449   0.00000  Uiso   1.00
H123   H     0.79653   0.50287   0.41709   0.00000  Uiso   1.00
H124   H     0.79013   0.55492   0.55346   0.00000  Uiso   1.00
H125   H     0.68408   0.48055   0.37199   0.00000  Uiso   1.00
H126   H     0.90583   0.49471   0.33188   0.00000  Uiso   1.00
H127   H     0.79799   0.57858   0.69506   0.00000  Uiso   1.00
H128   H     0.57440   0.42177   0.31239   0.00000  Uiso   1.00
H129   H     0.04201   0.45163   0.22781   0.00000  Uiso   1.00
O130   O     0.84529   0.49577   0.75178   0.00000  Uiso   1.00
O131   O     0.55196   0.29004   0.24972   0.00000  Uiso   1.00
O132   O     0.16544   0.32921   0.13876   0.00000  Uiso   1.00
N133   N     0.87450   0.39967   0.62793   0.00000  Uiso   1.00
N134   N     0.66545   0.25307   0.27017   0.00000  Uiso   1.00
N135   N     0.10261   0.28098   0.19107   0.00000  Uiso   1.00
N136   N     0.82129   0.52054   0.66200   0.00000  Uiso   1.00
N137   N     0.61224   0.37394   0.30424   0.00000  Uiso   1.00
N138   N     0.04940   0.40185   0.22515   0.00000  Uiso   1.00
C139   C     0.55737   0.39311   0.66200   0.00000  Uiso   1.00
C140   C     0.52550   0.44111   0.63113   0.00000  Uiso   1.00
C141   C     0.55002   0.42100   0.55948   0.00000  Uiso   1.00
C142   C     0.51356   0.47274   0.54206   0.00000  Uiso   1.00
C143   C     0.47300   0.53671   0.48615   0.00000  Uiso   1.00
C144   C     0.49320   0.38020   0.69327   0.00000  Uiso   1.00
C145   C     0.49058   0.30887   0.67387   0.00000  Uiso   1.00
C146   C     0.42693   0.30934   0.70877   0.00000  Uiso   1.00
C147   C     0.33626   0.27874   0.74937   0.00000  Uiso   1.00
C148   C     0.57915   0.44550   0.72770   0.00000  Uiso   1.00
C149   C     0.64878   0.42906   0.73726   0.00000  Uiso   1.00
C150   C     0.65749   0.48450   0.80115   0.00000  Uiso   1.00
C151   C     0.70025   0.55529   0.89521   0.00000  Uiso   1.00
C152   C     0.44901   0.52077   0.75846   0.00000  Uiso   1.00
C153   C     0.46664   0.51045   0.68353   0.00000  Uiso   1.00
C154   C     0.43013   0.56224   0.66621   0.00000  Uiso   1.00
C155   C     0.45460   0.54221   0.59455   0.00000  Uiso   1.00
C156   C     0.43435   0.44953   0.74566   0.00000  Uiso   1.00
C157   C     0.37069   0.45011   0.78060   0.00000  Uiso   1.00
C158   C     0.36797   0.37880   0.76126   0.00000  Uiso   1.00
C159   C     0.52029   0.51484   0.78009   0.00000  Uiso   1.00
C160   C     0.52889   0.57031   0.84399   0.00000  Uiso   1.00
C161   C     0.59852   0.55397   0.85364   0.00000  Uiso   1.00
H162   H     0.60319   0.33912   0.62121   0.00000  Uiso   1.00
H163   H     0.59557   0.36733   0.51895   0.00000  Uiso   1.00
H164   H     0.53614   0.25522   0.63333   0.00000  Uiso   1.00
H165   H     0.69431   0.37540   0.69670   0.00000  Uiso   1.00
H166   H     0.56115   0.42916   0.42867   0.00000  Uiso   1.00
H167   H     0.43584   0.19278   0.66987   0.00000  Uiso   1.00
H168   H     0.76938   0.44620   0.80351   0.00000  Uiso   1.00
H169   H     0.40318   0.57476   0.79926   0.00000  Uiso   1.00
H170   H     0.38459   0.61590   0.70677   0.00000  Uiso   1.00
H171   H     0.32515   0.50378   0.82115   0.00000  Uiso   1.00
H172   H     0.48333   0.62396   0.88452   0.00000  Uiso   1.00
H173   H     0.38990   0.63091   0.58111   0.00000  Uiso   1.00
H174   H     0.26460   0.39452   0.82232   0.00000  Uiso   1.00
H175   H     0.59814   0.64794   0.95595   0.00000  Uiso   1.00
O176   O     0.46689   0.55283   0.44083   0.00000  Uiso   1.00
O177   O     0.30250   0.24270   0.75729   0.00000  Uiso   1.00
O178   O     0.74010   0.57519   0.93261   0.00000  Uiso   1.00
N179   N     0.52341   0.47101   0.47725   0.00000  Uiso   1.00
N180   N     0.40625   0.25000   0.70275   0.00000  Uiso   1.00
N181   N     0.71808   0.48691   0.82769   0.00000  Uiso   1.00
N182   N     0.43126   0.57956   0.55927   0.00000  Uiso   1.00
N183   N     0.31410   0.35855   0.78477   0.00000  Uiso   1.00
N184   N     0.62593   0.59547   0.90972   0.00000  Uiso   1.00
C185   C     0.40645   0.22697   0.01975   0.00000  Uiso   1.00
C186   C     0.39515   0.25224   0.09987   0.00000  Uiso   1.00
C187   C     0.39738   0.32051   0.15570   0.00000  Uiso   1.00
C188   C     0.38565   0.33297   0.22532   0.00000  Uiso   1.00
C189   C     0.37012   0.38042   0.34773   0.00000  Uiso   1.00
C190   C     0.33769   0.21267   0.00111   0.00000  Uiso   1.00
C191   C     0.29162   0.24767   0.97388   0.00000  Uiso   1.00
C192   C     0.23153   0.22681   0.96035   0.00000  Uiso   1.00
C193   C     0.12682   0.21279   0.92937   0.00000  Uiso   1.00
C194   C     0.46952   0.14798   0.97497   0.00000  Uiso   1.00
C195   C     0.53428   0.12857   0.92575   0.00000  Uiso   1.00
C196   C     0.58517   0.05324   0.89019   0.00000  Uiso   1.00
C197   C     0.68514   0.93878   0.81863   0.00000  Uiso   1.00
C198   C     0.38167   0.12769   0.04411   0.00000  Uiso   1.00
C199   C     0.38169   0.19831   0.11311   0.00000  Uiso   1.00
C200   C     0.36996   0.21066   0.18266   0.00000  Uiso   1.00
C201   C     0.37217   0.27894   0.23858   0.00000  Uiso   1.00
C202   C     0.32423   0.15874   0.01434   0.00000  Uiso   1.00
C203   C     0.26420   0.13782   0.00084   0.00000  Uiso   1.00
C204   C     0.21804   0.17279   0.97361   0.00000  Uiso   1.00
C205   C     0.45606   0.09405   0.98820   0.00000  Uiso   1.00
C206   C     0.50686   0.01873   0.95271   0.00000  Uiso   1.00
C207   C     0.57168   0.99922   0.90345   0.00000  Uiso   1.00
H208   H     0.41693   0.26896   0.00944   0.00000  Uiso   1.00
H209   H     0.40779   0.36223   0.14544   0.00000  Uiso   1.00
H210   H     0.30206   0.28940   0.96364   0.00000  Uiso   1.00
H211   H     0.54468   0.17032   0.91552   0.00000  Uiso   1.00
H212   H     0.39170   0.44188   0.30206   0.00000  Uiso   1.00
H213   H     0.16876   0.28828   0.91870   0.00000  Uiso   1.00
H214   H     0.68038   0.03718   0.81722   0.00000  Uiso   1.00
H215   H     0.37118   0.08570   0.05442   0.00000  Uiso   1.00
H216   H     0.35954   0.16892   0.19289   0.00000  Uiso   1.00
H217   H     0.25380   0.09609   0.01109   0.00000  Uiso   1.00
H218   H     0.49642   0.97701   0.96297   0.00000  Uiso   1.00
H219   H     0.35253   0.28498   0.34057   0.00000  Uiso   1.00
H220   H     0.12959   0.13138   0.95721   0.00000  Uiso   1.00
H221   H     0.64121   0.88028   0.85573   0.00000  Uiso   1.00
O222   O     0.36526   0.42149   0.41159   0.00000  Uiso   1.00
O223   O     0.07278   0.21997   0.90863   0.00000  Uiso   1.00
O224   O     0.74400   0.89054   0.77550   0.00000  Uiso   1.00
N225   N     0.38410   0.39352   0.29212   0.00000  Uiso   1.00
N226   N     0.17565   0.24993   0.93371   0.00000  Uiso   1.00
N227   N     0.65396   0.01517   0.83882   0.00000  Uiso   1.00
N228   N     0.36302   0.30910   0.31284   0.00000  Uiso   1.00
N229   N     0.15458   0.16550   0.95443   0.00000  Uiso   1.00
N230   N     0.63289   0.93074   0.85955   0.00000  Uiso   1.00
C231   C     0.47642   0.86358   0.44406   0.00000  Uiso   1.00
C232   C     0.44777   0.79917   0.40511   0.00000  Uiso   1.00
C233   C     0.44930   0.74281   0.41998   0.00000  Uiso   1.00
C234   C     0.42036   0.68902   0.37828   0.00000  Uiso   1.00
C235   C     0.38030   0.58866   0.32614   0.00000  Uiso   1.00
C236   C     0.41176   0.93922   0.47411   0.00000  Uiso   1.00
C237   C     0.38303   0.00061   0.54698   0.00000  Uiso   1.00
C238   C     0.32379   0.06471   0.56335   0.00000  Uiso   1.00
C239   C     0.22787   0.18180   0.61832   0.00000  Uiso   1.00
C240   C     0.53264   0.85555   0.38409   0.00000  Uiso   1.00
C241   C     0.60554   0.84661   0.38128   0.00000  Uiso   1.00
C242   C     0.64807   0.84028   0.32187   0.00000  Uiso   1.00
C243   C     0.73983   0.82745   0.23706   0.00000  Uiso   1.00
C244   C     0.42231   0.86826   0.34356   0.00000  Uiso   1.00
C245   C     0.41837   0.80172   0.35053   0.00000  Uiso   1.00
C246   C     0.38943   0.74800   0.30879   0.00000  Uiso   1.00
C247   C     0.39092   0.69156   0.32359   0.00000  Uiso   1.00
C248   C     0.38237   0.94177   0.41952   0.00000  Uiso   1.00
C249   C     0.32316   0.00580   0.43579   0.00000  Uiso   1.00
C250   C     0.29434   0.06726   0.50867   0.00000  Uiso   1.00
C251   C     0.50325   0.85809   0.32950   0.00000  Uiso   1.00
C252   C     0.54567   0.85179   0.27009   0.00000  Uiso   1.00
C253   C     0.61862   0.84283   0.26718   0.00000  Uiso   1.00
H254   H     0.49930   0.86160   0.48656   0.00000  Uiso   1.00
H255   H     0.47204   0.74087   0.46223   0.00000  Uiso   1.00
H256   H     0.40579   0.99863   0.58921   0.00000  Uiso   1.00
H257   H     0.62827   0.84464   0.42353   0.00000  Uiso   1.00
H258   H     0.42883   0.60815   0.41121   0.00000  Uiso   1.00
H259   H     0.28916   0.15167   0.67894   0.00000  Uiso   1.00
H260   H     0.75829   0.82696   0.32958   0.00000  Uiso   1.00
H261   H     0.39942   0.87024   0.30106   0.00000  Uiso   1.00
H262   H     0.36668   0.74998   0.26655   0.00000  Uiso   1.00
H263   H     0.30043   0.00774   0.39353   0.00000  Uiso   1.00
H264   H     0.52291   0.85376   0.22785   0.00000  Uiso   1.00
H265   H     0.34332   0.61555   0.25239   0.00000  Uiso   1.00
H266   H     0.20364   0.15907   0.52013   0.00000  Uiso   1.00
H267   H     0.67278   0.83436   0.17076   0.00000  Uiso   1.00
O268   O     0.36632   0.53260   0.31246   0.00000  Uiso   1.00
O269   O     0.18308   0.24567   0.66372   0.00000  Uiso   1.00
O270   O     0.79857   0.81966   0.20536   0.00000  Uiso   1.00
N271   N     0.41321   0.62639   0.37856   0.00000  Uiso   1.00
N272   N     0.28262   0.13454   0.62887   0.00000  Uiso   1.00
N273   N     0.72121   0.83099   0.30226   0.00000  Uiso   1.00
N274   N     0.36720   0.63037   0.29310   0.00000  Uiso   1.00
N275   N     0.23660   0.13852   0.54342   0.00000  Uiso   1.00
N276   N     0.67520   0.83497   0.21680   0.00000  Uiso   1.00
C277   C     0.14365   0.96995   0.29750   0.00000  Uiso   1.00
C278   C     0.14179   0.94383   0.35109   0.00000  Uiso   1.00
C279   C     0.17972   0.86983   0.33429   0.00000  Uiso   1.00
C280   C     0.17076   0.85759   0.39100   0.00000  Uiso   1.00
C281   C     0.17478   0.80796   0.46343   0.00000  Uiso   1.00
C282   C     0.16829   0.03823   0.33101   0.00000  Uiso   1.00
C283   C     0.22851   0.04361   0.29732   0.00000  Uiso   1.00
C284   C     0.24185   0.11085   0.33713   0.00000  Uiso   1.00
C285   C     0.28700   0.20781   0.37837   0.00000  Uiso   1.00
C286   C     0.06374   0.00309   0.29991   0.00000  Uiso   1.00
C287   C     0.03605   0.97893   0.24006   0.00000  Uiso   1.00
C288   C     0.96137   0.01659   0.25368   0.00000  Uiso   1.00
C289   C     0.84418   0.05897   0.24661   0.00000  Uiso   1.00
C290   C     0.06028   0.07981   0.42810   0.00000  Uiso   1.00
C291   C     0.09651   0.00350   0.42203   0.00000  Uiso   1.00
C292   C     0.08748   0.99137   0.47878   0.00000  Uiso   1.00
C293   C     0.12539   0.91737   0.46207   0.00000  Uiso   1.00
C294   C     0.12301   0.09790   0.40195   0.00000  Uiso   1.00
C295   C     0.13627   0.16516   0.44182   0.00000  Uiso   1.00
C296   C     0.19649   0.17063   0.40820   0.00000  Uiso   1.00
C297   C     0.01846   0.06276   0.37084   0.00000  Uiso   1.00
C298   C     0.94381   0.10047   0.38456   0.00000  Uiso   1.00
C299   C     0.91600   0.07637   0.32474   0.00000  Uiso   1.00
H300   H     0.17890   0.92350   0.24228   0.00000  Uiso   1.00
H301   H     0.21476   0.82367   0.27939   0.00000  Uiso   1.00
H302   H     0.26353   0.99743   0.24242   0.00000  Uiso   1.00
H303   H     0.07110   0.93275   0.18517   0.00000  Uiso   1.00
H304   H     0.23457   0.73930   0.35182   0.00000  Uiso   1.00
H305   H     0.33739   0.10570   0.27387   0.00000  Uiso   1.00
H306   H     0.93162   0.96932   0.15315   0.00000  Uiso   1.00
H307   H     0.02503   0.12627   0.48333   0.00000  Uiso   1.00
H308   H     0.05244   0.03756   0.53367   0.00000  Uiso   1.00
H309   H     0.10121   0.21132   0.49671   0.00000  Uiso   1.00
H310   H     0.90878   0.14664   0.43946   0.00000  Uiso   1.00
H311   H     0.10282   0.91291   0.55821   0.00000  Uiso   1.00
H312   H     0.20565   0.27931   0.48026   0.00000  Uiso   1.00
H313   H     0.79987   0.14292   0.35953   0.00000  Uiso   1.00
O314   O     0.18952   0.76410   0.48378   0.00000  Uiso   1.00
O315   O     0.32441   0.24480   0.38151   0.00000  Uiso   1.00
O316   O     0.79205   0.06586   0.22312   0.00000  Uiso   1.00
N317   N     0.19979   0.79233   0.39348   0.00000  Uiso   1.00
N318   N     0.29593   0.13489   0.32061   0.00000  Uiso   1.00
N319   N     0.91657   0.00739   0.20774   0.00000  Uiso   1.00
N320   N     0.12889   0.88575   0.50453   0.00000  Uiso   1.00
N321   N     0.22504   0.22830   0.43166   0.00000  Uiso   1.00
N322   N     0.84568   0.10080   0.31879   0.00000  Uiso   1.00
C323   C     0.77928   0.38113   0.13398   0.00000  Uiso   1.00
C324   C     0.79275   0.45485   0.18167   0.00000  Uiso   1.00
C325   C     0.74369   0.52024   0.24688   0.00000  Uiso   1.00
C326   C     0.76636   0.58167   0.28234   0.00000  Uiso   1.00
C327   C     0.77676   0.69672   0.36080   0.00000  Uiso   1.00
C328   C     0.84257   0.31537   0.12608   0.00000  Uiso   1.00
C329   C     0.83539   0.26348   0.14455   0.00000  Uiso   1.00
C330   C     0.90000   0.20748   0.13320   0.00000  Uiso   1.00
C331   C     0.98774   0.10595   0.12530   0.00000  Uiso   1.00
C332   C     0.78989   0.36823   0.05786   0.00000  Uiso   1.00
C333   C     0.73843   0.36076   0.01894   0.00000  Uiso   1.00
C334   C     0.75869   0.34925   0.95014   0.00000  Uiso   1.00
C335   C     0.76463   0.32980   0.83632   0.00000  Uiso   1.00
C336   C     0.90677   0.37394   0.08098   0.00000  Uiso   1.00
C337   C     0.86200   0.45095   0.15289   0.00000  Uiso   1.00
C338   C     0.88475   0.51229   0.18825   0.00000  Uiso   1.00
C339   C     0.83573   0.57776   0.25350   0.00000  Uiso   1.00
C340   C     0.91181   0.31146   0.09730   0.00000  Uiso   1.00
C341   C     0.97645   0.25552   0.08592   0.00000  Uiso   1.00
C342   C     0.96937   0.20356   0.10436   0.00000  Uiso   1.00
C343   C     0.85913   0.36433   0.02908   0.00000  Uiso   1.00
C344   C     0.87948   0.35282   0.96032   0.00000  Uiso   1.00
C345   C     0.82806   0.34534   0.92131   0.00000  Uiso   1.00
H346   H     0.72537   0.38416   0.15638   0.00000  Uiso   1.00
H347   H     0.69011   0.52324   0.26914   0.00000  Uiso   1.00
H348   H     0.78180   0.26651   0.16681   0.00000  Uiso   1.00
H349   H     0.68485   0.36379   0.04123   0.00000  Uiso   1.00
H350   H     0.68157   0.67569   0.38147   0.00000  Uiso   1.00
H351   H     0.87490   0.13435   0.16569   0.00000  Uiso   1.00
H352   H     0.67045   0.33948   0.90088   0.00000  Uiso   1.00
H353   H     0.96068   0.37090   0.05857   0.00000  Uiso   1.00
H354   H     0.93834   0.50925   0.16597   0.00000  Uiso   1.00
H355   H     0.03002   0.25252   0.06364   0.00000  Uiso   1.00
H356   H     0.93307   0.34980   0.93806   0.00000  Uiso   1.00
H357   H     0.88304   0.66434   0.29774   0.00000  Uiso   1.00
H358   H     0.07637   0.12299   0.08195   0.00000  Uiso   1.00
H359   H     0.87192   0.32813   0.81714   0.00000  Uiso   1.00
O360   O     0.76337   0.76126   0.41203   0.00000  Uiso   1.00
O361   O     0.01700   0.05103   0.12891   0.00000  Uiso   1.00
O362   O     0.74878   0.32016   0.78149   0.00000  Uiso   1.00
N363   N     0.73205   0.65404   0.34702   0.00000  Uiso   1.00
N364   N     0.91280   0.14792   0.14528   0.00000  Uiso   1.00
N365   N     0.72166   0.33968   0.89770   0.00000  Uiso   1.00
N366   N     0.84046   0.64793   0.30196   0.00000  Uiso   1.00
N367   N     0.02121   0.14181   0.10023   0.00000  Uiso   1.00
N368   N     0.83007   0.33358   0.85264   0.00000  Uiso   1.00
C369   C     0.92005   0.80038   0.79100   0.00000  Uiso   1.00
C370   C     0.91544   0.74758   0.71436   0.00000  Uiso   1.00
C371   C     0.88831   0.77132   0.67012   0.00000  Uiso   1.00
C372   C     0.88880   0.71408   0.60180   0.00000  Uiso   1.00
C373   C     0.87762   0.64397   0.48631   0.00000  Uiso   1.00
C374   C     0.00066   0.77025   0.78805   0.00000  Uiso   1.00
C375   C     0.04518   0.81306   0.80579   0.00000  Uiso   1.00
C376   C     0.11741   0.77491   0.79952   0.00000  Uiso   1.00
C377   C     0.23852   0.74001   0.79850   0.00000  Uiso   1.00
C378   C     0.87771   0.78474   0.84135   0.00000  Uiso   1.00
C379   C     0.81887   0.83974   0.90391   0.00000  Uiso   1.00
C380   C     0.78759   0.81380   0.94252   0.00000  Uiso   1.00
C381   C     0.71780   0.80140   0.02425   0.00000  Uiso   1.00
C382   C     0.96916   0.65653   0.74835   0.00000  Uiso   1.00
C383   C     0.94211   0.66944   0.69119   0.00000  Uiso   1.00
C384   C     0.94264   0.61215   0.62293   0.00000  Uiso   1.00
C385   C     0.91552   0.63581   0.57859   0.00000  Uiso   1.00
C386   C     0.02734   0.69211   0.76489   0.00000  Uiso   1.00
C387   C     0.09951   0.65389   0.75860   0.00000  Uiso   1.00
C388   C     0.14413   0.69663   0.77632   0.00000  Uiso   1.00
C389   C     0.90438   0.70660   0.81818   0.00000  Uiso   1.00
C390   C     0.87319   0.68057   0.85672   0.00000  Uiso   1.00
C391   C     0.81431   0.73552   0.91932   0.00000  Uiso   1.00
H392   H     0.89929   0.86122   0.80903   0.00000  Uiso   1.00
H393   H     0.86768   0.83179   0.68806   0.00000  Uiso   1.00
H394   H     0.02452   0.87352   0.82372   0.00000  Uiso   1.00
H395   H     0.79824   0.90020   0.92182   0.00000  Uiso   1.00
H396   H     0.84443   0.76471   0.54371   0.00000  Uiso   1.00
H397   H     0.17513   0.85271   0.82978   0.00000  Uiso   1.00
H398   H     0.69797   0.90896   0.03664   0.00000  Uiso   1.00
H399   H     0.98992   0.59569   0.73031   0.00000  Uiso   1.00
H400   H     0.96329   0.55169   0.60502   0.00000  Uiso   1.00
H401   H     0.12013   0.59343   0.74068   0.00000  Uiso   1.00
H402   H     0.89385   0.62010   0.83877   0.00000  Uiso   1.00
H403   H     0.92203   0.53737   0.47631   0.00000  Uiso   1.00
H404   H     0.25273   0.62537   0.76239   0.00000  Uiso   1.00
H405   H     0.77557   0.68162   0.96924   0.00000  Uiso   1.00
O406   O     0.86409   0.62688   0.42900   0.00000  Uiso   1.00
O407   O     0.29796   0.74234   0.80433   0.00000  Uiso   1.00
O408   O     0.67193   0.81614   0.07572   0.00000  Uiso   1.00
N409   N     0.86633   0.71724   0.54505   0.00000  Uiso   1.00
N410   N     0.17552   0.79952   0.81250   0.00000  Uiso   1.00
N411   N     0.72943   0.85211   0.00591   0.00000  Uiso   1.00
N412   N     0.90809   0.59491   0.50878   0.00000  Uiso   1.00
N413   N     0.21728   0.67719   0.77623   0.00000  Uiso   1.00
N414   N     0.77118   0.72978   0.96964   0.00000  Uiso   1.00
C415   C     0.42449   0.98080   0.76743   0.00000  Uiso   1.00
C416   C     0.42959   0.91871   0.78431   0.00000  Uiso   1.00
C417   C     0.41861   0.93040   0.85359   0.00000  Uiso   1.00
C418   C     0.42579   0.86615   0.85748   0.00000  Uiso   1.00
C419   C     0.43108   0.78089   0.89330   0.00000  Uiso   1.00
C420   C     0.49834   0.95235   0.71302   0.00000  Uiso   1.00
C421   C     0.54514   0.99233   0.72236   0.00000  Uiso   1.00
C422   C     0.61018   0.95640   0.66623   0.00000  Uiso   1.00
C423   C     0.72218   0.92339   0.59134   0.00000  Uiso   1.00
C424   C     0.36766   0.97890   0.72525   0.00000  Uiso   1.00
C425   C     0.30460   0.04119   0.74486   0.00000  Uiso   1.00
C426   C     0.25963   0.02762   0.69901   0.00000  Uiso   1.00
C427   C     0.16873   0.03582   0.64312   0.00000  Uiso   1.00
C428   C     0.45676   0.84592   0.65113   0.00000  Uiso   1.00
C429   C     0.44713   0.84545   0.72114   0.00000  Uiso   1.00
C430   C     0.45432   0.78117   0.72492   0.00000  Uiso   1.00
C431   C     0.44334   0.79276   0.79420   0.00000  Uiso   1.00
C432   C     0.51587   0.87910   0.64985   0.00000  Uiso   1.00
C433   C     0.58085   0.84311   0.59369   0.00000  Uiso   1.00
C434   C     0.62775   0.88301   0.60294   0.00000  Uiso   1.00
C435   C     0.38519   0.90564   0.66208   0.00000  Uiso   1.00
C436   C     0.34031   0.89197   0.61619   0.00000  Uiso   1.00
C437   C     0.27719   0.95423   0.63573   0.00000  Uiso   1.00
H438   H     0.41085   0.03783   0.81660   0.00000  Uiso   1.00
H439   H     0.40505   0.98710   0.90246   0.00000  Uiso   1.00
H440   H     0.53156   0.04902   0.77124   0.00000  Uiso   1.00
H441   H     0.29106   0.09788   0.79374   0.00000  Uiso   1.00
H442   H     0.40638   0.89854   0.96980   0.00000  Uiso   1.00
H443   H     0.67312   0.02912   0.69311   0.00000  Uiso   1.00
H444   H     0.16597   0.13214   0.74055   0.00000  Uiso   1.00
H445   H     0.47041   0.78888   0.60194   0.00000  Uiso   1.00
H446   H     0.46788   0.72449   0.67603   0.00000  Uiso   1.00
H447   H     0.59440   0.78641   0.54481   0.00000  Uiso   1.00
H448   H     0.35389   0.83527   0.56731   0.00000  Uiso   1.00
H449   H     0.45739   0.68539   0.78601   0.00000  Uiso   1.00
H450   H     0.72413   0.81598   0.50932   0.00000  Uiso   1.00
H451   H     0.21697   0.91899   0.55676   0.00000  Uiso   1.00
O452   O     0.42917   0.75409   0.93051   0.00000  Uiso   1.00
O453   O     0.77911   0.92542   0.56750   0.00000  Uiso   1.00
O454   O     0.11374   0.06058   0.62974   0.00000  Uiso   1.00
N455   N     0.41872   0.85722   0.91638   0.00000  Uiso   1.00
N456   N     0.66811   0.97930   0.65769   0.00000  Uiso   1.00
N457   N     0.19398   0.07562   0.70204   0.00000  Uiso   1.00
N458   N     0.44616   0.74252   0.81749   0.00000  Uiso   1.00
N459   N     0.69555   0.86461   0.55880   0.00000  Uiso   1.00
N460   N     0.22142   0.96093   0.60314   0.00000  Uiso   1.00
C461   C     0.48772   0.11137   0.43324   0.00000  Uiso   1.00
C462   C     0.49258   0.09283   0.35562   0.00000  Uiso   1.00
C463   C     0.48065   0.03110   0.30047   0.00000  Uiso   1.00
C464   C     0.48776   0.02414   0.23322   0.00000  Uiso   1.00
C465   C     0.49256   0.98729   0.11445   0.00000  Uiso   1.00
C466   C     0.56203   0.11396   0.44467   0.00000  Uiso   1.00
C467   C     0.60848   0.07000   0.46442   0.00000  Uiso   1.00
C468   C     0.67405   0.08083   0.47214   0.00000  Uiso   1.00
C469   C     0.78663   0.07682   0.49168   0.00000  Uiso   1.00
C470   C     0.43174   0.19407   0.48478   0.00000  Uiso   1.00
C471   C     0.36866   0.21746   0.53827   0.00000  Uiso   1.00
C472   C     0.32454   0.29575   0.57978   0.00000  Uiso   1.00
C473   C     0.23484   0.41611   0.66159   0.00000  Uiso   1.00
C474   C     0.52156   0.20879   0.41187   0.00000  Uiso   1.00
C475   C     0.51097   0.14575   0.34401   0.00000  Uiso   1.00
C476   C     0.51810   0.13888   0.27683   0.00000  Uiso   1.00
C477   C     0.50618   0.07715   0.22159   0.00000  Uiso   1.00
C478   C     0.58041   0.16687   0.43307   0.00000  Uiso   1.00
C479   C     0.64593   0.17778   0.44077   0.00000  Uiso   1.00
C480   C     0.69247   0.13384   0.46051   0.00000  Uiso   1.00
C481   C     0.45013   0.24698   0.47317   0.00000  Uiso   1.00
C482   C     0.40610   0.32525   0.51461   0.00000  Uiso   1.00
C483   C     0.34296   0.34876   0.56815   0.00000  Uiso   1.00
H484   H     0.47341   0.07017   0.44228   0.00000  Uiso   1.00
H485   H     0.46643   0.99016   0.30948   0.00000  Uiso   1.00
H486   H     0.59423   0.02906   0.47340   0.00000  Uiso   1.00
H487   H     0.35445   0.17650   0.54724   0.00000  Uiso   1.00
H488   H     0.46683   0.92476   0.15711   0.00000  Uiso   1.00
H489   H     0.73630   0.00681   0.50278   0.00000  Uiso   1.00
H490   H     0.23067   0.31771   0.65848   0.00000  Uiso   1.00
H491   H     0.53588   0.24999   0.40283   0.00000  Uiso   1.00
H492   H     0.53233   0.17984   0.26786   0.00000  Uiso   1.00
H493   H     0.66013   0.21874   0.43178   0.00000  Uiso   1.00
H494   H     0.42035   0.36618   0.50562   0.00000  Uiso   1.00
H495   H     0.52032   0.07872   0.12333   0.00000  Uiso   1.00
H496   H     0.78979   0.16076   0.46900   0.00000  Uiso   1.00
H497   H     0.28415   0.47167   0.62470   0.00000  Uiso   1.00
O498   O     0.49013   0.95234   0.05214   0.00000  Uiso   1.00
O499   O     0.84366   0.05999   0.50566   0.00000  Uiso   1.00
O500   O     0.18028   0.46788   0.70992   0.00000  Uiso   1.00
N501   N     0.47989   0.97063   0.16769   0.00000  Uiso   1.00
N502   N     0.73183   0.04733   0.49086   0.00000  Uiso   1.00
N503   N     0.25912   0.33800   0.63643   0.00000  Uiso   1.00
N504   N     0.50867   0.05348   0.14951   0.00000  Uiso   1.00
N505   N     0.76061   0.13017   0.47268   0.00000  Uiso   1.00
N506   N     0.28790   0.42085   0.61826   0.00000  Uiso   1.00
C507   C     0.39212   0.47298   0.96795   0.00000  Uiso   1.00
C508   C     0.41442   0.54156   0.01114   0.00000  Uiso   1.00
C509   C     0.41198   0.59838   0.99672   0.00000  Uiso   1.00
C510   C     0.43474   0.65627   0.04258   0.00000  Uiso   1.00
C511   C     0.46571   0.76258   0.10078   0.00000  Uiso   1.00
C512   C     0.45915   0.40078   0.94245   0.00000  Uiso   1.00
C513   C     0.49430   0.33923   0.87027   0.00000  Uiso   1.00
C514   C     0.55471   0.27860   0.85832   0.00000  Uiso   1.00
C515   C     0.65509   0.16632   0.80988   0.00000  Uiso   1.00
C516   C     0.33347   0.47780   0.02365   0.00000  Uiso   1.00
C517   C     0.26296   0.48100   0.01974   0.00000  Uiso   1.00
C518   C     0.21756   0.48520   0.07614   0.00000  Uiso   1.00
C519   C     0.12280   0.49252   0.15377   0.00000  Uiso   1.00
C520   C     0.43689   0.47473   0.07506   0.00000  Uiso   1.00
C521   C     0.43874   0.54251   0.06932   0.00000  Uiso   1.00
C522   C     0.46151   0.60032   0.11522   0.00000  Uiso   1.00
C523   C     0.45910   0.65722   0.10087   0.00000  Uiso   1.00
C524   C     0.48347   0.40173   0.00063   0.00000  Uiso   1.00
C525   C     0.54384   0.34117   0.98878   0.00000  Uiso   1.00
C526   C     0.57908   0.27955   0.91660   0.00000  Uiso   1.00
C527   C     0.35779   0.47876   0.08183   0.00000  Uiso   1.00
C528   C     0.31250   0.48294   0.13824   0.00000  Uiso   1.00
C529   C     0.24193   0.48615   0.13442   0.00000  Uiso   1.00
H530   H     0.37319   0.47223   0.92266   0.00000  Uiso   1.00
H531   H     0.39316   0.59762   0.95168   0.00000  Uiso   1.00
H532   H     0.47546   0.33850   0.82527   0.00000  Uiso   1.00
H533   H     0.24416   0.48026   0.97471   0.00000  Uiso   1.00
H534   H     0.42605   0.73704   0.00951   0.00000  Uiso   1.00
H535   H     0.59958   0.19067   0.74295   0.00000  Uiso   1.00
H536   H     0.11183   0.48958   0.05808   0.00000  Uiso   1.00
H537   H     0.45583   0.47547   0.12035   0.00000  Uiso   1.00
H538   H     0.48033   0.60104   0.16024   0.00000  Uiso   1.00
H539   H     0.56264   0.34192   0.03381   0.00000  Uiso   1.00
H540   H     0.33133   0.48368   0.18326   0.00000  Uiso   1.00
H541   H     0.49681   0.73981   0.17877   0.00000  Uiso   1.00
H542   H     0.67034   0.19344   0.91221   0.00000  Uiso   1.00
H543   H     0.18259   0.49236   0.22734   0.00000  Uiso   1.00
O544   O     0.47608   0.82096   0.11680   0.00000  Uiso   1.00
O545   O     0.70374   0.10413   0.76708   0.00000  Uiso   1.00
O546   O     0.06382   0.49630   0.18052   0.00000  Uiso   1.00
N547   N     0.43933   0.72047   0.04388   0.00000  Uiso   1.00
N548   N     0.60158   0.20965   0.79466   0.00000  Uiso   1.00
N549   N     0.14557   0.48909   0.08927   0.00000  Uiso   1.00
N550   N     0.47740   0.72196   0.13496   0.00000  Uiso   1.00
N551   N     0.63965   0.21114   0.88574   0.00000  Uiso   1.00
N552   N     0.18365   0.49058   0.18035   0.00000  Uiso   1.00
