data_job_03580
_audit_creation_date              2018-12-19
_audit_creation_method            'Materials Studio'
_symmetry_space_group_name_H-M    'P1'
_symmetry_Int_Tables_number       1
_symmetry_cell_setting            triclinic
loop_
_symmetry_equiv_pos_as_xyz
  x,y,z
_cell_length_a                    17.7392
_cell_length_b                    13.7033
_cell_length_c                    19.7404
_cell_angle_alpha                 90.0000
_cell_angle_beta                  90.0000
_cell_angle_gamma                 90.0000
loop_
_atom_site_label
_atom_site_type_symbol
_atom_site_fract_x
_atom_site_fract_y
_atom_site_fract_z
_atom_site_U_iso_or_equiv
_atom_site_adp_type
_atom_site_occupancy
C1     C     0.78651   0.79636   0.84913   0.00000  Uiso   1.00
C2     C     0.74737   0.80496   0.91765   0.00000  Uiso   1.00
C3     C     0.73905   0.73038   0.96461   0.00000  Uiso   1.00
C4     C     0.70147   0.75295   0.02428   0.00000  Uiso   1.00
C5     C     0.64494   0.75203   0.12880   0.00000  Uiso   1.00
C6     C     0.72866   0.82825   0.79646   0.00000  Uiso   1.00
C7     C     0.70462   0.77325   0.74152   0.00000  Uiso   1.00
C8     C     0.65130   0.81543   0.69917   0.00000  Uiso   1.00
C9     C     0.56577   0.85069   0.61550   0.00000  Uiso   1.00
C10    C     0.84792   0.87423   0.84868   0.00000  Uiso   1.00
C11    C     0.92414   0.85790   0.83764   0.00000  Uiso   1.00
C12    C     0.97123   0.93881   0.83924   0.00000  Uiso   1.00
C13    C     0.07086   0.04546   0.83666   0.00000  Uiso   1.00
C14    C     0.73458   0.96909   0.87159   0.00000  Uiso   1.00
C15    C     0.71916   0.89878   0.92985   0.00000  Uiso   1.00
C16    C     0.68159   0.92148   0.98946   0.00000  Uiso   1.00
C17    C     0.67321   0.84694   0.03651   0.00000  Uiso   1.00
C18    C     0.70046   0.92207   0.80866   0.00000  Uiso   1.00
C19    C     0.64716   0.96435   0.76637   0.00000  Uiso   1.00
C20    C     0.62304   0.90942   0.71139   0.00000  Uiso   1.00
C21    C     0.81971   0.96805   0.86088   0.00000  Uiso   1.00
C22    C     0.86669   0.04900   0.86249   0.00000  Uiso   1.00
C23    C     0.94297   0.03280   0.85146   0.00000  Uiso   1.00
H24    H     0.80847   0.72332   0.83963   0.00000  Uiso   1.00
H25    H     0.76088   0.65778   0.95515   0.00000  Uiso   1.00
H26    H     0.72646   0.70065   0.73209   0.00000  Uiso   1.00
H27    H     0.94595   0.78529   0.82820   0.00000  Uiso   1.00
H28    H     0.69564   0.62648   0.08859   0.00000  Uiso   1.00
H29    H     0.62310   0.71689   0.61824   0.00000  Uiso   1.00
H30    H     0.08593   0.89537   0.82090   0.00000  Uiso   1.00
H31    H     0.71262   0.04214   0.88109   0.00000  Uiso   1.00
H32    H     0.65977   0.99409   0.99889   0.00000  Uiso   1.00
H33    H     0.62535   0.03696   0.77583   0.00000  Uiso   1.00
H34    H     0.84484   0.12160   0.87194   0.00000  Uiso   1.00
H35    H     0.61358   0.89944   0.12409   0.00000  Uiso   1.00
H36    H     0.54104   0.98985   0.65374   0.00000  Uiso   1.00
H37    H     0.00387   0.16833   0.85641   0.00000  Uiso   1.00
O38    O     0.62155   0.72560   0.18308   0.00000  Uiso   1.00
O39    O     0.52639   0.84421   0.56599   0.00000  Uiso   1.00
O40    O     0.13361   0.07837   0.83188   0.00000  Uiso   1.00
N41    N     0.68360   0.69732   0.08079   0.00000  Uiso   1.00
N42    N     0.61576   0.78184   0.64105   0.00000  Uiso   1.00
N43    N     0.04847   0.94871   0.83050   0.00000  Uiso   1.00
N44    N     0.63944   0.84420   0.09989   0.00000  Uiso   1.00
N45    N     0.57160   0.92872   0.66015   0.00000  Uiso   1.00
N46    N     0.00431   0.09558   0.84960   0.00000  Uiso   1.00
C47    C     0.71349   0.70364   0.34913   0.00000  Uiso   1.00
C48    C     0.75263   0.69504   0.41765   0.00000  Uiso   1.00
C49    C     0.76095   0.76962   0.46461   0.00000  Uiso   1.00
C50    C     0.79853   0.74705   0.52428   0.00000  Uiso   1.00
C51    C     0.85506   0.74797   0.62880   0.00000  Uiso   1.00
C52    C     0.77134   0.67175   0.29646   0.00000  Uiso   1.00
C53    C     0.79538   0.72675   0.24152   0.00000  Uiso   1.00
C54    C     0.84870   0.68457   0.19917   0.00000  Uiso   1.00
C55    C     0.93423   0.64931   0.11550   0.00000  Uiso   1.00
C56    C     0.65208   0.62577   0.34868   0.00000  Uiso   1.00
C57    C     0.57586   0.64210   0.33764   0.00000  Uiso   1.00
C58    C     0.52877   0.56119   0.33924   0.00000  Uiso   1.00
C59    C     0.42914   0.45454   0.33666   0.00000  Uiso   1.00
C60    C     0.76542   0.53091   0.37159   0.00000  Uiso   1.00
C61    C     0.78084   0.60122   0.42985   0.00000  Uiso   1.00
C62    C     0.81841   0.57852   0.48946   0.00000  Uiso   1.00
C63    C     0.82679   0.65306   0.53651   0.00000  Uiso   1.00
C64    C     0.79954   0.57793   0.30866   0.00000  Uiso   1.00
C65    C     0.85284   0.53565   0.26637   0.00000  Uiso   1.00
C66    C     0.87696   0.59058   0.21139   0.00000  Uiso   1.00
C67    C     0.68029   0.53195   0.36088   0.00000  Uiso   1.00
C68    C     0.63331   0.45100   0.36249   0.00000  Uiso   1.00
C69    C     0.55703   0.46720   0.35146   0.00000  Uiso   1.00
H70    H     0.69153   0.77668   0.33963   0.00000  Uiso   1.00
H71    H     0.73912   0.84222   0.45515   0.00000  Uiso   1.00
H72    H     0.77354   0.79935   0.23209   0.00000  Uiso   1.00
H73    H     0.55405   0.71471   0.32820   0.00000  Uiso   1.00
H74    H     0.80436   0.87352   0.58859   0.00000  Uiso   1.00
H75    H     0.87690   0.78311   0.11824   0.00000  Uiso   1.00
H76    H     0.41407   0.60463   0.32090   0.00000  Uiso   1.00
H77    H     0.78738   0.45786   0.38109   0.00000  Uiso   1.00
H78    H     0.84023   0.50591   0.49889   0.00000  Uiso   1.00
H79    H     0.87465   0.46304   0.27583   0.00000  Uiso   1.00
H80    H     0.65516   0.37840   0.37194   0.00000  Uiso   1.00
H81    H     0.88642   0.60056   0.62409   0.00000  Uiso   1.00
H82    H     0.95896   0.51015   0.15374   0.00000  Uiso   1.00
H83    H     0.49613   0.33167   0.35641   0.00000  Uiso   1.00
O84    O     0.87845   0.77440   0.68308   0.00000  Uiso   1.00
O85    O     0.97361   0.65579   0.06599   0.00000  Uiso   1.00
O86    O     0.36639   0.42163   0.33188   0.00000  Uiso   1.00
N87    N     0.81640   0.80268   0.58079   0.00000  Uiso   1.00
N88    N     0.88424   0.71816   0.14105   0.00000  Uiso   1.00
N89    N     0.45153   0.55129   0.33050   0.00000  Uiso   1.00
N90    N     0.86056   0.65580   0.59989   0.00000  Uiso   1.00
N91    N     0.92840   0.57128   0.16015   0.00000  Uiso   1.00
N92    N     0.49569   0.40442   0.34960   0.00000  Uiso   1.00
C93    C     0.21349   0.79636   0.65087   0.00000  Uiso   1.00
C94    C     0.25263   0.80496   0.58235   0.00000  Uiso   1.00
C95    C     0.26095   0.73038   0.53539   0.00000  Uiso   1.00
C96    C     0.29853   0.75295   0.47572   0.00000  Uiso   1.00
C97    C     0.35506   0.75203   0.37120   0.00000  Uiso   1.00
C98    C     0.27134   0.82825   0.70354   0.00000  Uiso   1.00
C99    C     0.29538   0.77325   0.75848   0.00000  Uiso   1.00
C100   C     0.34870   0.81543   0.80083   0.00000  Uiso   1.00
C101   C     0.43423   0.85069   0.88450   0.00000  Uiso   1.00
C102   C     0.15208   0.87423   0.65132   0.00000  Uiso   1.00
C103   C     0.07586   0.85790   0.66236   0.00000  Uiso   1.00
C104   C     0.02877   0.93881   0.66076   0.00000  Uiso   1.00
C105   C     0.92914   0.04546   0.66334   0.00000  Uiso   1.00
C106   C     0.26542   0.96909   0.62841   0.00000  Uiso   1.00
C107   C     0.28084   0.89878   0.57015   0.00000  Uiso   1.00
C108   C     0.31841   0.92148   0.51054   0.00000  Uiso   1.00
C109   C     0.32679   0.84694   0.46349   0.00000  Uiso   1.00
C110   C     0.29954   0.92207   0.69134   0.00000  Uiso   1.00
C111   C     0.35284   0.96435   0.73363   0.00000  Uiso   1.00
C112   C     0.37696   0.90942   0.78861   0.00000  Uiso   1.00
C113   C     0.18029   0.96805   0.63912   0.00000  Uiso   1.00
C114   C     0.13331   0.04900   0.63751   0.00000  Uiso   1.00
C115   C     0.05703   0.03280   0.64854   0.00000  Uiso   1.00
H116   H     0.19153   0.72332   0.66037   0.00000  Uiso   1.00
H117   H     0.23912   0.65778   0.54485   0.00000  Uiso   1.00
H118   H     0.27354   0.70065   0.76791   0.00000  Uiso   1.00
H119   H     0.05405   0.78529   0.67180   0.00000  Uiso   1.00
H120   H     0.30436   0.62648   0.41141   0.00000  Uiso   1.00
H121   H     0.37690   0.71689   0.88176   0.00000  Uiso   1.00
H122   H     0.91407   0.89537   0.67910   0.00000  Uiso   1.00
H123   H     0.28738   0.04214   0.61891   0.00000  Uiso   1.00
H124   H     0.34023   0.99409   0.50111   0.00000  Uiso   1.00
H125   H     0.37465   0.03696   0.72417   0.00000  Uiso   1.00
H126   H     0.15516   0.12160   0.62806   0.00000  Uiso   1.00
H127   H     0.38642   0.89944   0.37591   0.00000  Uiso   1.00
H128   H     0.45896   0.98985   0.84626   0.00000  Uiso   1.00
H129   H     0.99613   0.16833   0.64359   0.00000  Uiso   1.00
O130   O     0.37845   0.72560   0.31692   0.00000  Uiso   1.00
O131   O     0.47361   0.84421   0.93401   0.00000  Uiso   1.00
O132   O     0.86639   0.07837   0.66812   0.00000  Uiso   1.00
N133   N     0.31640   0.69732   0.41921   0.00000  Uiso   1.00
N134   N     0.38424   0.78184   0.85895   0.00000  Uiso   1.00
N135   N     0.95153   0.94871   0.66950   0.00000  Uiso   1.00
N136   N     0.36056   0.84420   0.40011   0.00000  Uiso   1.00
N137   N     0.42840   0.92872   0.83985   0.00000  Uiso   1.00
N138   N     0.99569   0.09558   0.65040   0.00000  Uiso   1.00
C139   C     0.28651   0.70364   0.15087   0.00000  Uiso   1.00
C140   C     0.24737   0.69504   0.08235   0.00000  Uiso   1.00
C141   C     0.23905   0.76962   0.03539   0.00000  Uiso   1.00
C142   C     0.20147   0.74705   0.97572   0.00000  Uiso   1.00
C143   C     0.14494   0.74797   0.87120   0.00000  Uiso   1.00
C144   C     0.22866   0.67175   0.20354   0.00000  Uiso   1.00
C145   C     0.20462   0.72675   0.25848   0.00000  Uiso   1.00
C146   C     0.15130   0.68457   0.30083   0.00000  Uiso   1.00
C147   C     0.06577   0.64931   0.38450   0.00000  Uiso   1.00
C148   C     0.34792   0.62577   0.15132   0.00000  Uiso   1.00
C149   C     0.42414   0.64210   0.16236   0.00000  Uiso   1.00
C150   C     0.47123   0.56119   0.16076   0.00000  Uiso   1.00
C151   C     0.57086   0.45454   0.16334   0.00000  Uiso   1.00
C152   C     0.23458   0.53091   0.12841   0.00000  Uiso   1.00
C153   C     0.21916   0.60122   0.07015   0.00000  Uiso   1.00
C154   C     0.18159   0.57852   0.01054   0.00000  Uiso   1.00
C155   C     0.17321   0.65306   0.96349   0.00000  Uiso   1.00
C156   C     0.20046   0.57793   0.19134   0.00000  Uiso   1.00
C157   C     0.14716   0.53565   0.23363   0.00000  Uiso   1.00
C158   C     0.12304   0.59058   0.28861   0.00000  Uiso   1.00
C159   C     0.31971   0.53195   0.13912   0.00000  Uiso   1.00
C160   C     0.36669   0.45100   0.13751   0.00000  Uiso   1.00
C161   C     0.44297   0.46720   0.14854   0.00000  Uiso   1.00
H162   H     0.30847   0.77668   0.16037   0.00000  Uiso   1.00
H163   H     0.26088   0.84222   0.04485   0.00000  Uiso   1.00
H164   H     0.22646   0.79935   0.26791   0.00000  Uiso   1.00
H165   H     0.44595   0.71471   0.17180   0.00000  Uiso   1.00
H166   H     0.19564   0.87352   0.91141   0.00000  Uiso   1.00
H167   H     0.12310   0.78311   0.38176   0.00000  Uiso   1.00
H168   H     0.58593   0.60463   0.17910   0.00000  Uiso   1.00
H169   H     0.21262   0.45786   0.11891   0.00000  Uiso   1.00
H170   H     0.15977   0.50591   0.00111   0.00000  Uiso   1.00
H171   H     0.12535   0.46304   0.22417   0.00000  Uiso   1.00
H172   H     0.34484   0.37840   0.12806   0.00000  Uiso   1.00
H173   H     0.11358   0.60056   0.87591   0.00000  Uiso   1.00
H174   H     0.04104   0.51015   0.34626   0.00000  Uiso   1.00
H175   H     0.50387   0.33167   0.14359   0.00000  Uiso   1.00
O176   O     0.12155   0.77440   0.81692   0.00000  Uiso   1.00
O177   O     0.02639   0.65579   0.43401   0.00000  Uiso   1.00
O178   O     0.63361   0.42163   0.16812   0.00000  Uiso   1.00
N179   N     0.18360   0.80268   0.91921   0.00000  Uiso   1.00
N180   N     0.11576   0.71816   0.35895   0.00000  Uiso   1.00
N181   N     0.54847   0.55129   0.16950   0.00000  Uiso   1.00
N182   N     0.13944   0.65580   0.90011   0.00000  Uiso   1.00
N183   N     0.07160   0.57128   0.33985   0.00000  Uiso   1.00
N184   N     0.50431   0.40442   0.15040   0.00000  Uiso   1.00
C185   C     0.21349   0.20364   0.15087   0.00000  Uiso   1.00
C186   C     0.25263   0.19504   0.08235   0.00000  Uiso   1.00
C187   C     0.26095   0.26962   0.03539   0.00000  Uiso   1.00
C188   C     0.29853   0.24705   0.97572   0.00000  Uiso   1.00
C189   C     0.35506   0.24797   0.87120   0.00000  Uiso   1.00
C190   C     0.27134   0.17175   0.20354   0.00000  Uiso   1.00
C191   C     0.29538   0.22675   0.25848   0.00000  Uiso   1.00
C192   C     0.34870   0.18457   0.30083   0.00000  Uiso   1.00
C193   C     0.43423   0.14931   0.38450   0.00000  Uiso   1.00
C194   C     0.15208   0.12577   0.15132   0.00000  Uiso   1.00
C195   C     0.07586   0.14210   0.16236   0.00000  Uiso   1.00
C196   C     0.02877   0.06119   0.16076   0.00000  Uiso   1.00
C197   C     0.92914   0.95454   0.16334   0.00000  Uiso   1.00
C198   C     0.26542   0.03091   0.12841   0.00000  Uiso   1.00
C199   C     0.28084   0.10122   0.07015   0.00000  Uiso   1.00
C200   C     0.31841   0.07852   0.01054   0.00000  Uiso   1.00
C201   C     0.32679   0.15306   0.96349   0.00000  Uiso   1.00
C202   C     0.29954   0.07793   0.19134   0.00000  Uiso   1.00
C203   C     0.35284   0.03565   0.23363   0.00000  Uiso   1.00
C204   C     0.37696   0.09058   0.28861   0.00000  Uiso   1.00
C205   C     0.18029   0.03195   0.13912   0.00000  Uiso   1.00
C206   C     0.13331   0.95100   0.13751   0.00000  Uiso   1.00
C207   C     0.05703   0.96720   0.14854   0.00000  Uiso   1.00
H208   H     0.19153   0.27668   0.16037   0.00000  Uiso   1.00
H209   H     0.23912   0.34222   0.04485   0.00000  Uiso   1.00
H210   H     0.27354   0.29935   0.26791   0.00000  Uiso   1.00
H211   H     0.05405   0.21471   0.17180   0.00000  Uiso   1.00
H212   H     0.30436   0.37352   0.91141   0.00000  Uiso   1.00
H213   H     0.37690   0.28311   0.38176   0.00000  Uiso   1.00
H214   H     0.91407   0.10463   0.17910   0.00000  Uiso   1.00
H215   H     0.28738   0.95786   0.11891   0.00000  Uiso   1.00
H216   H     0.34023   0.00591   0.00111   0.00000  Uiso   1.00
H217   H     0.37465   0.96304   0.22417   0.00000  Uiso   1.00
H218   H     0.15516   0.87840   0.12806   0.00000  Uiso   1.00
H219   H     0.38642   0.10056   0.87591   0.00000  Uiso   1.00
H220   H     0.45896   0.01015   0.34626   0.00000  Uiso   1.00
H221   H     0.99613   0.83167   0.14359   0.00000  Uiso   1.00
O222   O     0.37845   0.27440   0.81692   0.00000  Uiso   1.00
O223   O     0.47361   0.15579   0.43401   0.00000  Uiso   1.00
O224   O     0.86639   0.92163   0.16812   0.00000  Uiso   1.00
N225   N     0.31640   0.30268   0.91921   0.00000  Uiso   1.00
N226   N     0.38424   0.21816   0.35895   0.00000  Uiso   1.00
N227   N     0.95153   0.05129   0.16950   0.00000  Uiso   1.00
N228   N     0.36056   0.15580   0.90011   0.00000  Uiso   1.00
N229   N     0.42840   0.07128   0.33985   0.00000  Uiso   1.00
N230   N     0.99569   0.90442   0.15040   0.00000  Uiso   1.00
C231   C     0.28651   0.29636   0.65087   0.00000  Uiso   1.00
C232   C     0.24737   0.30496   0.58235   0.00000  Uiso   1.00
C233   C     0.23905   0.23038   0.53539   0.00000  Uiso   1.00
C234   C     0.20147   0.25295   0.47572   0.00000  Uiso   1.00
C235   C     0.14494   0.25203   0.37120   0.00000  Uiso   1.00
C236   C     0.22866   0.32825   0.70354   0.00000  Uiso   1.00
C237   C     0.20462   0.27325   0.75848   0.00000  Uiso   1.00
C238   C     0.15130   0.31543   0.80083   0.00000  Uiso   1.00
C239   C     0.06577   0.35069   0.88450   0.00000  Uiso   1.00
C240   C     0.34792   0.37423   0.65132   0.00000  Uiso   1.00
C241   C     0.42414   0.35790   0.66236   0.00000  Uiso   1.00
C242   C     0.47123   0.43881   0.66076   0.00000  Uiso   1.00
C243   C     0.57086   0.54546   0.66334   0.00000  Uiso   1.00
C244   C     0.23458   0.46909   0.62841   0.00000  Uiso   1.00
C245   C     0.21916   0.39878   0.57015   0.00000  Uiso   1.00
C246   C     0.18159   0.42148   0.51054   0.00000  Uiso   1.00
C247   C     0.17321   0.34694   0.46349   0.00000  Uiso   1.00
C248   C     0.20046   0.42207   0.69134   0.00000  Uiso   1.00
C249   C     0.14716   0.46435   0.73363   0.00000  Uiso   1.00
C250   C     0.12304   0.40942   0.78861   0.00000  Uiso   1.00
C251   C     0.31971   0.46805   0.63912   0.00000  Uiso   1.00
C252   C     0.36669   0.54900   0.63751   0.00000  Uiso   1.00
C253   C     0.44297   0.53280   0.64854   0.00000  Uiso   1.00
H254   H     0.30847   0.22332   0.66037   0.00000  Uiso   1.00
H255   H     0.26088   0.15778   0.54485   0.00000  Uiso   1.00
H256   H     0.22646   0.20065   0.76791   0.00000  Uiso   1.00
H257   H     0.44595   0.28529   0.67180   0.00000  Uiso   1.00
H258   H     0.19564   0.12648   0.41141   0.00000  Uiso   1.00
H259   H     0.12310   0.21689   0.88176   0.00000  Uiso   1.00
H260   H     0.58593   0.39537   0.67910   0.00000  Uiso   1.00
H261   H     0.21262   0.54214   0.61891   0.00000  Uiso   1.00
H262   H     0.15977   0.49409   0.50111   0.00000  Uiso   1.00
H263   H     0.12535   0.53696   0.72417   0.00000  Uiso   1.00
H264   H     0.34484   0.62160   0.62806   0.00000  Uiso   1.00
H265   H     0.11358   0.39944   0.37591   0.00000  Uiso   1.00
H266   H     0.04104   0.48985   0.84626   0.00000  Uiso   1.00
H267   H     0.50387   0.66833   0.64359   0.00000  Uiso   1.00
O268   O     0.12155   0.22560   0.31692   0.00000  Uiso   1.00
O269   O     0.02639   0.34421   0.93401   0.00000  Uiso   1.00
O270   O     0.63361   0.57837   0.66812   0.00000  Uiso   1.00
N271   N     0.18360   0.19732   0.41921   0.00000  Uiso   1.00
N272   N     0.11576   0.28184   0.85895   0.00000  Uiso   1.00
N273   N     0.54847   0.44871   0.66950   0.00000  Uiso   1.00
N274   N     0.13944   0.34420   0.40011   0.00000  Uiso   1.00
N275   N     0.07160   0.42872   0.83985   0.00000  Uiso   1.00
N276   N     0.50431   0.59558   0.65040   0.00000  Uiso   1.00
C277   C     0.78651   0.20364   0.34913   0.00000  Uiso   1.00
C278   C     0.74737   0.19504   0.41765   0.00000  Uiso   1.00
C279   C     0.73905   0.26962   0.46461   0.00000  Uiso   1.00
C280   C     0.70147   0.24705   0.52428   0.00000  Uiso   1.00
C281   C     0.64494   0.24797   0.62880   0.00000  Uiso   1.00
C282   C     0.72866   0.17175   0.29646   0.00000  Uiso   1.00
C283   C     0.70462   0.22675   0.24152   0.00000  Uiso   1.00
C284   C     0.65130   0.18457   0.19917   0.00000  Uiso   1.00
C285   C     0.56577   0.14931   0.11550   0.00000  Uiso   1.00
C286   C     0.84792   0.12577   0.34868   0.00000  Uiso   1.00
C287   C     0.92414   0.14210   0.33764   0.00000  Uiso   1.00
C288   C     0.97123   0.06119   0.33924   0.00000  Uiso   1.00
C289   C     0.07086   0.95454   0.33666   0.00000  Uiso   1.00
C290   C     0.73458   0.03091   0.37159   0.00000  Uiso   1.00
C291   C     0.71916   0.10122   0.42985   0.00000  Uiso   1.00
C292   C     0.68159   0.07852   0.48946   0.00000  Uiso   1.00
C293   C     0.67321   0.15306   0.53651   0.00000  Uiso   1.00
C294   C     0.70046   0.07793   0.30866   0.00000  Uiso   1.00
C295   C     0.64716   0.03565   0.26637   0.00000  Uiso   1.00
C296   C     0.62304   0.09058   0.21139   0.00000  Uiso   1.00
C297   C     0.81971   0.03195   0.36088   0.00000  Uiso   1.00
C298   C     0.86669   0.95100   0.36249   0.00000  Uiso   1.00
C299   C     0.94297   0.96720   0.35146   0.00000  Uiso   1.00
H300   H     0.80847   0.27668   0.33963   0.00000  Uiso   1.00
H301   H     0.76088   0.34222   0.45515   0.00000  Uiso   1.00
H302   H     0.72646   0.29935   0.23209   0.00000  Uiso   1.00
H303   H     0.94595   0.21471   0.32820   0.00000  Uiso   1.00
H304   H     0.69564   0.37352   0.58859   0.00000  Uiso   1.00
H305   H     0.62310   0.28311   0.11824   0.00000  Uiso   1.00
H306   H     0.08593   0.10463   0.32090   0.00000  Uiso   1.00
H307   H     0.71262   0.95786   0.38109   0.00000  Uiso   1.00
H308   H     0.65977   0.00591   0.49889   0.00000  Uiso   1.00
H309   H     0.62535   0.96304   0.27583   0.00000  Uiso   1.00
H310   H     0.84484   0.87840   0.37194   0.00000  Uiso   1.00
H311   H     0.61358   0.10056   0.62409   0.00000  Uiso   1.00
H312   H     0.54104   0.01015   0.15374   0.00000  Uiso   1.00
H313   H     0.00387   0.83167   0.35641   0.00000  Uiso   1.00
O314   O     0.62155   0.27440   0.68308   0.00000  Uiso   1.00
O315   O     0.52639   0.15579   0.06599   0.00000  Uiso   1.00
O316   O     0.13361   0.92163   0.33188   0.00000  Uiso   1.00
N317   N     0.68360   0.30268   0.58079   0.00000  Uiso   1.00
N318   N     0.61576   0.21816   0.14105   0.00000  Uiso   1.00
N319   N     0.04847   0.05129   0.33050   0.00000  Uiso   1.00
N320   N     0.63944   0.15580   0.59989   0.00000  Uiso   1.00
N321   N     0.57160   0.07128   0.16015   0.00000  Uiso   1.00
N322   N     0.00431   0.90442   0.34960   0.00000  Uiso   1.00
C323   C     0.71349   0.29636   0.84913   0.00000  Uiso   1.00
C324   C     0.75263   0.30496   0.91765   0.00000  Uiso   1.00
C325   C     0.76095   0.23038   0.96461   0.00000  Uiso   1.00
C326   C     0.79853   0.25295   0.02428   0.00000  Uiso   1.00
C327   C     0.85506   0.25203   0.12880   0.00000  Uiso   1.00
C328   C     0.77134   0.32825   0.79646   0.00000  Uiso   1.00
C329   C     0.79538   0.27325   0.74152   0.00000  Uiso   1.00
C330   C     0.84870   0.31543   0.69917   0.00000  Uiso   1.00
C331   C     0.93423   0.35069   0.61550   0.00000  Uiso   1.00
C332   C     0.65208   0.37423   0.84868   0.00000  Uiso   1.00
C333   C     0.57586   0.35790   0.83764   0.00000  Uiso   1.00
C334   C     0.52877   0.43881   0.83924   0.00000  Uiso   1.00
C335   C     0.42914   0.54546   0.83666   0.00000  Uiso   1.00
C336   C     0.76542   0.46909   0.87159   0.00000  Uiso   1.00
C337   C     0.78084   0.39878   0.92985   0.00000  Uiso   1.00
C338   C     0.81841   0.42148   0.98946   0.00000  Uiso   1.00
C339   C     0.82679   0.34694   0.03651   0.00000  Uiso   1.00
C340   C     0.79954   0.42207   0.80866   0.00000  Uiso   1.00
C341   C     0.85284   0.46435   0.76637   0.00000  Uiso   1.00
C342   C     0.87696   0.40942   0.71139   0.00000  Uiso   1.00
C343   C     0.68029   0.46805   0.86088   0.00000  Uiso   1.00
C344   C     0.63331   0.54900   0.86249   0.00000  Uiso   1.00
C345   C     0.55703   0.53280   0.85146   0.00000  Uiso   1.00
H346   H     0.69153   0.22332   0.83963   0.00000  Uiso   1.00
H347   H     0.73912   0.15778   0.95515   0.00000  Uiso   1.00
H348   H     0.77354   0.20065   0.73209   0.00000  Uiso   1.00
H349   H     0.55405   0.28529   0.82820   0.00000  Uiso   1.00
H350   H     0.80436   0.12648   0.08859   0.00000  Uiso   1.00
H351   H     0.87690   0.21689   0.61824   0.00000  Uiso   1.00
H352   H     0.41407   0.39537   0.82090   0.00000  Uiso   1.00
H353   H     0.78738   0.54214   0.88109   0.00000  Uiso   1.00
H354   H     0.84023   0.49409   0.99889   0.00000  Uiso   1.00
H355   H     0.87465   0.53696   0.77583   0.00000  Uiso   1.00
H356   H     0.65516   0.62160   0.87194   0.00000  Uiso   1.00
H357   H     0.88642   0.39944   0.12409   0.00000  Uiso   1.00
H358   H     0.95896   0.48985   0.65374   0.00000  Uiso   1.00
H359   H     0.49613   0.66833   0.85641   0.00000  Uiso   1.00
O360   O     0.87845   0.22560   0.18308   0.00000  Uiso   1.00
O361   O     0.97361   0.34421   0.56599   0.00000  Uiso   1.00
O362   O     0.36639   0.57837   0.83188   0.00000  Uiso   1.00
N363   N     0.81640   0.19732   0.08079   0.00000  Uiso   1.00
N364   N     0.88424   0.28184   0.64105   0.00000  Uiso   1.00
N365   N     0.45153   0.44871   0.83050   0.00000  Uiso   1.00
N366   N     0.86056   0.34420   0.09989   0.00000  Uiso   1.00
N367   N     0.92840   0.42872   0.66015   0.00000  Uiso   1.00
N368   N     0.49569   0.59558   0.84960   0.00000  Uiso   1.00
