data_job_04979
_audit_creation_date              2018-12-19
_audit_creation_method            'Materials Studio'
_symmetry_space_group_name_H-M    'P1'
_symmetry_Int_Tables_number       1
_symmetry_cell_setting            triclinic
loop_
_symmetry_equiv_pos_as_xyz
  x,y,z
_cell_length_a                    19.8713
_cell_length_b                    14.8685
_cell_length_c                    8.9047
_cell_angle_alpha                 90.0000
_cell_angle_beta                  90.0000
_cell_angle_gamma                 90.0000
loop_
_atom_site_label
_atom_site_type_symbol
_atom_site_fract_x
_atom_site_fract_y
_atom_site_fract_z
_atom_site_U_iso_or_equiv
_atom_site_adp_type
_atom_site_occupancy
C1     C     0.41778   0.26902   0.17155   0.00000  Uiso   1.00
C2     C     0.37068   0.29828   0.04549   0.00000  Uiso   1.00
C3     C     0.32055   0.36291   0.05694   0.00000  Uiso   1.00
C4     C     0.28286   0.38003   0.92881   0.00000  Uiso   1.00
C5     C     0.20786   0.43242   0.75358   0.00000  Uiso   1.00
C6     C     0.40886   0.16756   0.18674   0.00000  Uiso   1.00
C7     C     0.39084   0.12228   0.31697   0.00000  Uiso   1.00
C8     C     0.38530   0.02936   0.30775   0.00000  Uiso   1.00
C9     C     0.36962   0.87880   0.35185   0.00000  Uiso   1.00
C10    C     0.48902   0.28329   0.11251   0.00000  Uiso   1.00
C11    C     0.53841   0.33529   0.18033   0.00000  Uiso   1.00
C12    C     0.60037   0.33979   0.10862   0.00000  Uiso   1.00
C13    C     0.70915   0.36891   0.03746   0.00000  Uiso   1.00
C14    C     0.43998   0.18450   0.92362   0.00000  Uiso   1.00
C15    C     0.38274   0.25237   0.91083   0.00000  Uiso   1.00
C16    C     0.34511   0.26940   0.78264   0.00000  Uiso   1.00
C17    C     0.29494   0.33405   0.79390   0.00000  Uiso   1.00
C18    C     0.42091   0.12166   0.05209   0.00000  Uiso   1.00
C19    C     0.41540   0.02878   0.04267   0.00000  Uiso   1.00
C20    C     0.39738   0.98337   0.17284   0.00000  Uiso   1.00
C21    C     0.50108   0.23738   0.97784   0.00000  Uiso   1.00
C22    C     0.56297   0.24179   0.90603   0.00000  Uiso   1.00
C23    C     0.61245   0.29380   0.97372   0.00000  Uiso   1.00
H24    H     0.40839   0.30475   0.27639   0.00000  Uiso   1.00
H25    H     0.31123   0.39841   0.16118   0.00000  Uiso   1.00
H26    H     0.38152   0.15782   0.42117   0.00000  Uiso   1.00
H27    H     0.52906   0.37081   0.28454   0.00000  Uiso   1.00
H28    H     0.20881   0.48199   0.97408   0.00000  Uiso   1.00
H29    H     0.35704   0.97469   0.52229   0.00000  Uiso   1.00
H30    H     0.66816   0.42380   0.23419   0.00000  Uiso   1.00
H31    H     0.44937   0.14876   0.81878   0.00000  Uiso   1.00
H32    H     0.35446   0.23387   0.67845   0.00000  Uiso   1.00
H33    H     0.42474   0.99328   0.93844   0.00000  Uiso   1.00
H34    H     0.57228   0.20626   0.80182   0.00000  Uiso   1.00
H35    H     0.24389   0.34843   0.58228   0.00000  Uiso   1.00
H36    H     0.39212   0.84113   0.13050   0.00000  Uiso   1.00
H37    H     0.70324   0.29025   0.84240   0.00000  Uiso   1.00
O38    O     0.16316   0.47399   0.69414   0.00000  Uiso   1.00
O39    O     0.35764   0.80843   0.41338   0.00000  Uiso   1.00
O40    O     0.76583   0.39766   0.03540   0.00000  Uiso   1.00
N41    N     0.23010   0.43889   0.90112   0.00000  Uiso   1.00
N42    N     0.36867   0.96460   0.41366   0.00000  Uiso   1.00
N43    N     0.65956   0.38446   0.14433   0.00000  Uiso   1.00
N44    N     0.24898   0.36703   0.69029   0.00000  Uiso   1.00
N45    N     0.38755   0.89273   0.20283   0.00000  Uiso   1.00
N46    N     0.67843   0.31260   0.93351   0.00000  Uiso   1.00
C47    C     0.58222   0.73098   0.17155   0.00000  Uiso   1.00
C48    C     0.62932   0.70172   0.04549   0.00000  Uiso   1.00
C49    C     0.67945   0.63709   0.05694   0.00000  Uiso   1.00
C50    C     0.71714   0.61997   0.92881   0.00000  Uiso   1.00
C51    C     0.79214   0.56758   0.75358   0.00000  Uiso   1.00
C52    C     0.59114   0.83244   0.18674   0.00000  Uiso   1.00
C53    C     0.60916   0.87772   0.31697   0.00000  Uiso   1.00
C54    C     0.61470   0.97064   0.30775   0.00000  Uiso   1.00
C55    C     0.63038   0.12120   0.35185   0.00000  Uiso   1.00
C56    C     0.51098   0.71671   0.11251   0.00000  Uiso   1.00
C57    C     0.46159   0.66471   0.18033   0.00000  Uiso   1.00
C58    C     0.39963   0.66021   0.10862   0.00000  Uiso   1.00
C59    C     0.29085   0.63109   0.03746   0.00000  Uiso   1.00
C60    C     0.56002   0.81550   0.92362   0.00000  Uiso   1.00
C61    C     0.61726   0.74763   0.91083   0.00000  Uiso   1.00
C62    C     0.65489   0.73060   0.78264   0.00000  Uiso   1.00
C63    C     0.70506   0.66595   0.79390   0.00000  Uiso   1.00
C64    C     0.57909   0.87834   0.05209   0.00000  Uiso   1.00
C65    C     0.58460   0.97122   0.04267   0.00000  Uiso   1.00
C66    C     0.60262   0.01663   0.17284   0.00000  Uiso   1.00
C67    C     0.49892   0.76262   0.97784   0.00000  Uiso   1.00
C68    C     0.43703   0.75821   0.90603   0.00000  Uiso   1.00
C69    C     0.38755   0.70620   0.97372   0.00000  Uiso   1.00
H70    H     0.59161   0.69525   0.27639   0.00000  Uiso   1.00
H71    H     0.68877   0.60159   0.16118   0.00000  Uiso   1.00
H72    H     0.61848   0.84218   0.42117   0.00000  Uiso   1.00
H73    H     0.47094   0.62919   0.28454   0.00000  Uiso   1.00
H74    H     0.79119   0.51801   0.97408   0.00000  Uiso   1.00
H75    H     0.64296   0.02531   0.52229   0.00000  Uiso   1.00
H76    H     0.33184   0.57620   0.23419   0.00000  Uiso   1.00
H77    H     0.55063   0.85124   0.81878   0.00000  Uiso   1.00
H78    H     0.64554   0.76613   0.67845   0.00000  Uiso   1.00
H79    H     0.57526   0.00672   0.93844   0.00000  Uiso   1.00
H80    H     0.42772   0.79374   0.80182   0.00000  Uiso   1.00
H81    H     0.75611   0.65157   0.58228   0.00000  Uiso   1.00
H82    H     0.60788   0.15887   0.13050   0.00000  Uiso   1.00
H83    H     0.29676   0.70975   0.84240   0.00000  Uiso   1.00
O84    O     0.83684   0.52601   0.69414   0.00000  Uiso   1.00
O85    O     0.64236   0.19157   0.41338   0.00000  Uiso   1.00
O86    O     0.23417   0.60234   0.03540   0.00000  Uiso   1.00
N87    N     0.76990   0.56111   0.90112   0.00000  Uiso   1.00
N88    N     0.63133   0.03540   0.41366   0.00000  Uiso   1.00
N89    N     0.34044   0.61554   0.14433   0.00000  Uiso   1.00
N90    N     0.75102   0.63297   0.69029   0.00000  Uiso   1.00
N91    N     0.61245   0.10727   0.20283   0.00000  Uiso   1.00
N92    N     0.32157   0.68740   0.93351   0.00000  Uiso   1.00
C93    C     0.91778   0.23098   0.17155   0.00000  Uiso   1.00
C94    C     0.87068   0.20172   0.04549   0.00000  Uiso   1.00
C95    C     0.82055   0.13709   0.05694   0.00000  Uiso   1.00
C96    C     0.78286   0.11997   0.92881   0.00000  Uiso   1.00
C97    C     0.70786   0.06758   0.75358   0.00000  Uiso   1.00
C98    C     0.90886   0.33244   0.18674   0.00000  Uiso   1.00
C99    C     0.89084   0.37772   0.31697   0.00000  Uiso   1.00
C100   C     0.88530   0.47064   0.30775   0.00000  Uiso   1.00
C101   C     0.86962   0.62120   0.35185   0.00000  Uiso   1.00
C102   C     0.98902   0.21671   0.11251   0.00000  Uiso   1.00
C103   C     0.03841   0.16471   0.18033   0.00000  Uiso   1.00
C104   C     0.10037   0.16021   0.10862   0.00000  Uiso   1.00
C105   C     0.20915   0.13109   0.03746   0.00000  Uiso   1.00
C106   C     0.93998   0.31550   0.92362   0.00000  Uiso   1.00
C107   C     0.88274   0.24763   0.91083   0.00000  Uiso   1.00
C108   C     0.84511   0.23060   0.78264   0.00000  Uiso   1.00
C109   C     0.79494   0.16595   0.79390   0.00000  Uiso   1.00
C110   C     0.92091   0.37834   0.05209   0.00000  Uiso   1.00
C111   C     0.91540   0.47122   0.04267   0.00000  Uiso   1.00
C112   C     0.89738   0.51663   0.17284   0.00000  Uiso   1.00
C113   C     0.00108   0.26262   0.97784   0.00000  Uiso   1.00
C114   C     0.06297   0.25821   0.90603   0.00000  Uiso   1.00
C115   C     0.11245   0.20620   0.97372   0.00000  Uiso   1.00
H116   H     0.90839   0.19525   0.27639   0.00000  Uiso   1.00
H117   H     0.81123   0.10159   0.16118   0.00000  Uiso   1.00
H118   H     0.88152   0.34218   0.42117   0.00000  Uiso   1.00
H119   H     0.02906   0.12919   0.28454   0.00000  Uiso   1.00
H120   H     0.70881   0.01801   0.97408   0.00000  Uiso   1.00
H121   H     0.85704   0.52531   0.52229   0.00000  Uiso   1.00
H122   H     0.16816   0.07620   0.23419   0.00000  Uiso   1.00
H123   H     0.94937   0.35124   0.81878   0.00000  Uiso   1.00
H124   H     0.85446   0.26613   0.67845   0.00000  Uiso   1.00
H125   H     0.92474   0.50672   0.93844   0.00000  Uiso   1.00
H126   H     0.07228   0.29374   0.80182   0.00000  Uiso   1.00
H127   H     0.74389   0.15157   0.58228   0.00000  Uiso   1.00
H128   H     0.89212   0.65887   0.13050   0.00000  Uiso   1.00
H129   H     0.20324   0.20975   0.84240   0.00000  Uiso   1.00
O130   O     0.66316   0.02601   0.69414   0.00000  Uiso   1.00
O131   O     0.85764   0.69157   0.41338   0.00000  Uiso   1.00
O132   O     0.26583   0.10234   0.03540   0.00000  Uiso   1.00
N133   N     0.73010   0.06111   0.90112   0.00000  Uiso   1.00
N134   N     0.86867   0.53540   0.41366   0.00000  Uiso   1.00
N135   N     0.15956   0.11554   0.14433   0.00000  Uiso   1.00
N136   N     0.74898   0.13297   0.69029   0.00000  Uiso   1.00
N137   N     0.88755   0.60727   0.20283   0.00000  Uiso   1.00
N138   N     0.17843   0.18740   0.93351   0.00000  Uiso   1.00
C139   C     0.08222   0.76902   0.17155   0.00000  Uiso   1.00
C140   C     0.12932   0.79828   0.04549   0.00000  Uiso   1.00
C141   C     0.17945   0.86291   0.05694   0.00000  Uiso   1.00
C142   C     0.21714   0.88003   0.92881   0.00000  Uiso   1.00
C143   C     0.29214   0.93242   0.75358   0.00000  Uiso   1.00
C144   C     0.09114   0.66756   0.18674   0.00000  Uiso   1.00
C145   C     0.10916   0.62228   0.31697   0.00000  Uiso   1.00
C146   C     0.11470   0.52936   0.30775   0.00000  Uiso   1.00
C147   C     0.13038   0.37880   0.35185   0.00000  Uiso   1.00
C148   C     0.01098   0.78329   0.11251   0.00000  Uiso   1.00
C149   C     0.96159   0.83529   0.18033   0.00000  Uiso   1.00
C150   C     0.89963   0.83979   0.10862   0.00000  Uiso   1.00
C151   C     0.79085   0.86891   0.03746   0.00000  Uiso   1.00
C152   C     0.06002   0.68450   0.92362   0.00000  Uiso   1.00
C153   C     0.11726   0.75237   0.91083   0.00000  Uiso   1.00
C154   C     0.15489   0.76940   0.78264   0.00000  Uiso   1.00
C155   C     0.20506   0.83405   0.79390   0.00000  Uiso   1.00
C156   C     0.07909   0.62166   0.05209   0.00000  Uiso   1.00
C157   C     0.08460   0.52878   0.04267   0.00000  Uiso   1.00
C158   C     0.10262   0.48337   0.17284   0.00000  Uiso   1.00
C159   C     0.99892   0.73738   0.97784   0.00000  Uiso   1.00
C160   C     0.93703   0.74179   0.90603   0.00000  Uiso   1.00
C161   C     0.88755   0.79380   0.97372   0.00000  Uiso   1.00
H162   H     0.09161   0.80475   0.27639   0.00000  Uiso   1.00
H163   H     0.18877   0.89841   0.16118   0.00000  Uiso   1.00
H164   H     0.11848   0.65782   0.42117   0.00000  Uiso   1.00
H165   H     0.97094   0.87081   0.28454   0.00000  Uiso   1.00
H166   H     0.29119   0.98199   0.97408   0.00000  Uiso   1.00
H167   H     0.14296   0.47469   0.52229   0.00000  Uiso   1.00
H168   H     0.83184   0.92380   0.23419   0.00000  Uiso   1.00
H169   H     0.05063   0.64876   0.81878   0.00000  Uiso   1.00
H170   H     0.14554   0.73387   0.67845   0.00000  Uiso   1.00
H171   H     0.07526   0.49328   0.93844   0.00000  Uiso   1.00
H172   H     0.92772   0.70626   0.80182   0.00000  Uiso   1.00
H173   H     0.25611   0.84843   0.58228   0.00000  Uiso   1.00
H174   H     0.10788   0.34113   0.13050   0.00000  Uiso   1.00
H175   H     0.79676   0.79025   0.84240   0.00000  Uiso   1.00
O176   O     0.33684   0.97399   0.69414   0.00000  Uiso   1.00
O177   O     0.14236   0.30843   0.41338   0.00000  Uiso   1.00
O178   O     0.73417   0.89766   0.03540   0.00000  Uiso   1.00
N179   N     0.26990   0.93889   0.90112   0.00000  Uiso   1.00
N180   N     0.13133   0.46460   0.41366   0.00000  Uiso   1.00
N181   N     0.84044   0.88446   0.14433   0.00000  Uiso   1.00
N182   N     0.25102   0.86703   0.69029   0.00000  Uiso   1.00
N183   N     0.11245   0.39273   0.20283   0.00000  Uiso   1.00
N184   N     0.82157   0.81260   0.93351   0.00000  Uiso   1.00
