data_job_02831
_audit_creation_date              2018-12-19
_audit_creation_method            'Materials Studio'
_symmetry_space_group_name_H-M    'P1'
_symmetry_Int_Tables_number       1
_symmetry_cell_setting            triclinic
loop_
_symmetry_equiv_pos_as_xyz
  x,y,z
_cell_length_a                    11.3617
_cell_length_b                    12.6021
_cell_length_c                    14.7981
_cell_angle_alpha                 98.9737
_cell_angle_beta                  77.0631
_cell_angle_gamma                 111.8963
loop_
_atom_site_label
_atom_site_type_symbol
_atom_site_fract_x
_atom_site_fract_y
_atom_site_fract_z
_atom_site_U_iso_or_equiv
_atom_site_adp_type
_atom_site_occupancy
C1     C     0.26440   0.63421   0.63561   0.00000  Uiso   1.00
C2     C     0.20988   0.71148   0.70879   0.00000  Uiso   1.00
C3     C     0.15059   0.78303   0.69202   0.00000  Uiso   1.00
C4     C     0.10723   0.84687   0.76830   0.00000  Uiso   1.00
C5     C     0.02029   0.96804   0.86827   0.00000  Uiso   1.00
C6     C     0.40547   0.66847   0.64386   0.00000  Uiso   1.00
C7     C     0.51063   0.70383   0.57249   0.00000  Uiso   1.00
C8     C     0.63192   0.73145   0.59412   0.00000  Uiso   1.00
C9     C     0.84863   0.78576   0.59327   0.00000  Uiso   1.00
C10    C     0.19734   0.51319   0.66745   0.00000  Uiso   1.00
C11    C     0.12753   0.41798   0.61591   0.00000  Uiso   1.00
C12    C     0.07362   0.31485   0.65739   0.00000  Uiso   1.00
C13    C     0.96718   0.12807   0.69317   0.00000  Uiso   1.00
C14    C     0.29283   0.62035   0.80091   0.00000  Uiso   1.00
C15    C     0.22532   0.70396   0.79857   0.00000  Uiso   1.00
C16    C     0.18204   0.76770   0.87491   0.00000  Uiso   1.00
C17    C     0.12269   0.83933   0.85825   0.00000  Uiso   1.00
C18    C     0.42091   0.66095   0.73364   0.00000  Uiso   1.00
C19    C     0.54208   0.68851   0.75538   0.00000  Uiso   1.00
C20    C     0.64739   0.72391   0.68407   0.00000  Uiso   1.00
C21    C     0.21278   0.50566   0.75724   0.00000  Uiso   1.00
C22    C     0.15898   0.40266   0.79880   0.00000  Uiso   1.00
C23    C     0.08909   0.30731   0.74734   0.00000  Uiso   1.00
H24    H     0.25239   0.64007   0.56570   0.00000  Uiso   1.00
H25    H     0.13867   0.78883   0.62252   0.00000  Uiso   1.00
H26    H     0.49865   0.70963   0.50302   0.00000  Uiso   1.00
H27    H     0.11560   0.42383   0.54643   0.00000  Uiso   1.00
H28    H     0.01945   0.95048   0.72511   0.00000  Uiso   1.00
H29    H     0.77848   0.78345   0.47311   0.00000  Uiso   1.00
H30    H     0.97076   0.18078   0.56466   0.00000  Uiso   1.00
H31    H     0.30485   0.61450   0.87081   0.00000  Uiso   1.00
H32    H     0.19400   0.76186   0.94438   0.00000  Uiso   1.00
H33    H     0.55399   0.68267   0.82487   0.00000  Uiso   1.00
H34    H     0.17094   0.39686   0.86828   0.00000  Uiso   1.00
H35    H     0.06436   0.92860   0.98634   0.00000  Uiso   1.00
H36    H     0.82340   0.76156   0.73434   0.00000  Uiso   1.00
H37    H     0.01567   0.15889   0.82589   0.00000  Uiso   1.00
O38    O     0.96808   0.03697   0.89861   0.00000  Uiso   1.00
O39    O     0.96389   0.81781   0.56799   0.00000  Uiso   1.00
O40    O     0.90418   0.02712   0.68811   0.00000  Uiso   1.00
N41    N     0.04520   0.92509   0.77650   0.00000  Uiso   1.00
N42    N     0.75486   0.76895   0.54090   0.00000  Uiso   1.00
N43    N     0.99974   0.20549   0.62648   0.00000  Uiso   1.00
N44    N     0.06937   0.91331   0.91706   0.00000  Uiso   1.00
N45    N     0.77902   0.75717   0.68146   0.00000  Uiso   1.00
N46    N     0.02390   0.19371   0.76704   0.00000  Uiso   1.00
C47    C     0.73560   0.36579   0.36439   0.00000  Uiso   1.00
C48    C     0.79012   0.28852   0.29121   0.00000  Uiso   1.00
C49    C     0.84941   0.21697   0.30798   0.00000  Uiso   1.00
C50    C     0.89277   0.15313   0.23170   0.00000  Uiso   1.00
C51    C     0.97971   0.03196   0.13173   0.00000  Uiso   1.00
C52    C     0.59453   0.33153   0.35614   0.00000  Uiso   1.00
C53    C     0.48937   0.29617   0.42751   0.00000  Uiso   1.00
C54    C     0.36808   0.26855   0.40588   0.00000  Uiso   1.00
C55    C     0.15137   0.21424   0.40673   0.00000  Uiso   1.00
C56    C     0.80266   0.48681   0.33255   0.00000  Uiso   1.00
C57    C     0.87247   0.58202   0.38409   0.00000  Uiso   1.00
C58    C     0.92638   0.68515   0.34261   0.00000  Uiso   1.00
C59    C     0.03282   0.87193   0.30683   0.00000  Uiso   1.00
C60    C     0.70717   0.37965   0.19909   0.00000  Uiso   1.00
C61    C     0.77468   0.29604   0.20143   0.00000  Uiso   1.00
C62    C     0.81796   0.23230   0.12509   0.00000  Uiso   1.00
C63    C     0.87731   0.16067   0.14175   0.00000  Uiso   1.00
C64    C     0.57909   0.33905   0.26636   0.00000  Uiso   1.00
C65    C     0.45792   0.31149   0.24462   0.00000  Uiso   1.00
C66    C     0.35261   0.27609   0.31593   0.00000  Uiso   1.00
C67    C     0.78722   0.49434   0.24276   0.00000  Uiso   1.00
C68    C     0.84102   0.59734   0.20120   0.00000  Uiso   1.00
C69    C     0.91091   0.69269   0.25266   0.00000  Uiso   1.00
H70    H     0.74761   0.35993   0.43430   0.00000  Uiso   1.00
H71    H     0.86133   0.21117   0.37748   0.00000  Uiso   1.00
H72    H     0.50135   0.29037   0.49698   0.00000  Uiso   1.00
H73    H     0.88440   0.57617   0.45357   0.00000  Uiso   1.00
H74    H     0.98055   0.04952   0.27489   0.00000  Uiso   1.00
H75    H     0.22152   0.21655   0.52689   0.00000  Uiso   1.00
H76    H     0.02924   0.81922   0.43534   0.00000  Uiso   1.00
H77    H     0.69515   0.38550   0.12919   0.00000  Uiso   1.00
H78    H     0.80600   0.23814   0.05562   0.00000  Uiso   1.00
H79    H     0.44601   0.31733   0.17513   0.00000  Uiso   1.00
H80    H     0.82906   0.60314   0.13172   0.00000  Uiso   1.00
H81    H     0.93564   0.07140   0.01366   0.00000  Uiso   1.00
H82    H     0.17660   0.23844   0.26566   0.00000  Uiso   1.00
H83    H     0.98433   0.84111   0.17411   0.00000  Uiso   1.00
O84    O     0.03192   0.96303   0.10139   0.00000  Uiso   1.00
O85    O     0.03611   0.18219   0.43201   0.00000  Uiso   1.00
O86    O     0.09582   0.97288   0.31189   0.00000  Uiso   1.00
N87    N     0.95480   0.07491   0.22350   0.00000  Uiso   1.00
N88    N     0.24514   0.23105   0.45910   0.00000  Uiso   1.00
N89    N     0.00026   0.79451   0.37352   0.00000  Uiso   1.00
N90    N     0.93063   0.08669   0.08294   0.00000  Uiso   1.00
N91    N     0.22098   0.24283   0.31854   0.00000  Uiso   1.00
N92    N     0.97610   0.80629   0.23296   0.00000  Uiso   1.00
