data_job_04946
_audit_creation_date              2018-12-19
_audit_creation_method            'Materials Studio'
_symmetry_space_group_name_H-M    'P1'
_symmetry_Int_Tables_number       1
_symmetry_cell_setting            triclinic
loop_
_symmetry_equiv_pos_as_xyz
  x,y,z
_cell_length_a                    22.7457
_cell_length_b                    22.7457
_cell_length_c                    9.6392
_cell_angle_alpha                 90.0000
_cell_angle_beta                  90.0000
_cell_angle_gamma                 90.0000
loop_
_atom_site_label
_atom_site_type_symbol
_atom_site_fract_x
_atom_site_fract_y
_atom_site_fract_z
_atom_site_U_iso_or_equiv
_atom_site_adp_type
_atom_site_occupancy
C1     C     0.50001   0.70555   0.90511   0.00000  Uiso   1.00
C2     C     0.44645   0.74204   0.94560   0.00000  Uiso   1.00
C3     C     0.40143   0.72402   0.03296   0.00000  Uiso   1.00
C4     C     0.35633   0.76386   0.05703   0.00000  Uiso   1.00
C5     C     0.27315   0.81201   0.12915   0.00000  Uiso   1.00
C6     C     0.49999   0.70301   0.74702   0.00000  Uiso   1.00
C7     C     0.50000   0.65217   0.66743   0.00000  Uiso   1.00
C8     C     0.49998   0.65916   0.52434   0.00000  Uiso   1.00
C9     C     0.49998   0.64671   0.28817   0.00000  Uiso   1.00
C10    C     0.55356   0.74207   0.94553   0.00000  Uiso   1.00
C11    C     0.59862   0.72406   0.03282   0.00000  Uiso   1.00
C12    C     0.64371   0.76393   0.05683   0.00000  Uiso   1.00
C13    C     0.72687   0.81212   0.12887   0.00000  Uiso   1.00
C14    C     0.49998   0.80837   0.79251   0.00000  Uiso   1.00
C15    C     0.44643   0.79789   0.88444   0.00000  Uiso   1.00
C16    C     0.40139   0.83778   0.90839   0.00000  Uiso   1.00
C17    C     0.35631   0.81981   0.99577   0.00000  Uiso   1.00
C18    C     0.49997   0.75886   0.68586   0.00000  Uiso   1.00
C19    C     0.49996   0.76592   0.54286   0.00000  Uiso   1.00
C20    C     0.49997   0.71511   0.46307   0.00000  Uiso   1.00
C21    C     0.55354   0.79792   0.88438   0.00000  Uiso   1.00
C22    C     0.59858   0.83782   0.90825   0.00000  Uiso   1.00
C23    C     0.64369   0.81988   0.99556   0.00000  Uiso   1.00
H24    H     0.50003   0.66207   0.95272   0.00000  Uiso   1.00
H25    H     0.40146   0.68079   0.08026   0.00000  Uiso   1.00
H26    H     0.50002   0.60895   0.71479   0.00000  Uiso   1.00
H27    H     0.59862   0.68084   0.08012   0.00000  Uiso   1.00
H28    H     0.29215   0.72616   0.19465   0.00000  Uiso   1.00
H29    H     0.50000   0.57469   0.42404   0.00000  Uiso   1.00
H30    H     0.70792   0.72627   0.19442   0.00000  Uiso   1.00
H31    H     0.49996   0.85186   0.74489   0.00000  Uiso   1.00
H32    H     0.40138   0.88099   0.86104   0.00000  Uiso   1.00
H33    H     0.49995   0.80915   0.49557   0.00000  Uiso   1.00
H34    H     0.59855   0.88103   0.86090   0.00000  Uiso   1.00
H35    H     0.29209   0.88865   0.01672   0.00000  Uiso   1.00
H36    H     0.49995   0.73718   0.24611   0.00000  Uiso   1.00
H37    H     0.70786   0.88876   0.01649   0.00000  Uiso   1.00
O38    O     0.22727   0.82314   0.18581   0.00000  Uiso   1.00
O39    O     0.49997   0.62441   0.17479   0.00000  Uiso   1.00
O40    O     0.77275   0.82328   0.18552   0.00000  Uiso   1.00
N41    N     0.30567   0.76041   0.13686   0.00000  Uiso   1.00
N42    N     0.49999   0.61879   0.41638   0.00000  Uiso   1.00
N43    N     0.69438   0.76050   0.13659   0.00000  Uiso   1.00
N44    N     0.30564   0.84785   0.04112   0.00000  Uiso   1.00
N45    N     0.49996   0.70623   0.32064   0.00000  Uiso   1.00
N46    N     0.69435   0.84793   0.04085   0.00000  Uiso   1.00
C47    C     0.49999   0.29445   0.90511   0.00000  Uiso   1.00
C48    C     0.55355   0.25796   0.94560   0.00000  Uiso   1.00
C49    C     0.59857   0.27598   0.03296   0.00000  Uiso   1.00
C50    C     0.64367   0.23614   0.05703   0.00000  Uiso   1.00
C51    C     0.72685   0.18799   0.12915   0.00000  Uiso   1.00
C52    C     0.50001   0.29699   0.74702   0.00000  Uiso   1.00
C53    C     0.50000   0.34783   0.66743   0.00000  Uiso   1.00
C54    C     0.50002   0.34084   0.52434   0.00000  Uiso   1.00
C55    C     0.50002   0.35329   0.28817   0.00000  Uiso   1.00
C56    C     0.44644   0.25793   0.94553   0.00000  Uiso   1.00
C57    C     0.40138   0.27594   0.03282   0.00000  Uiso   1.00
C58    C     0.35629   0.23607   0.05683   0.00000  Uiso   1.00
C59    C     0.27313   0.18788   0.12887   0.00000  Uiso   1.00
C60    C     0.50002   0.19163   0.79251   0.00000  Uiso   1.00
C61    C     0.55357   0.20211   0.88444   0.00000  Uiso   1.00
C62    C     0.59861   0.16222   0.90839   0.00000  Uiso   1.00
C63    C     0.64369   0.18019   0.99577   0.00000  Uiso   1.00
C64    C     0.50003   0.24114   0.68586   0.00000  Uiso   1.00
C65    C     0.50004   0.23408   0.54286   0.00000  Uiso   1.00
C66    C     0.50003   0.28489   0.46307   0.00000  Uiso   1.00
C67    C     0.44646   0.20208   0.88438   0.00000  Uiso   1.00
C68    C     0.40142   0.16218   0.90825   0.00000  Uiso   1.00
C69    C     0.35631   0.18012   0.99556   0.00000  Uiso   1.00
H70    H     0.49997   0.33793   0.95272   0.00000  Uiso   1.00
H71    H     0.59854   0.31921   0.08026   0.00000  Uiso   1.00
H72    H     0.49998   0.39105   0.71479   0.00000  Uiso   1.00
H73    H     0.40138   0.31916   0.08012   0.00000  Uiso   1.00
H74    H     0.70785   0.27384   0.19465   0.00000  Uiso   1.00
H75    H     0.50000   0.42531   0.42404   0.00000  Uiso   1.00
H76    H     0.29208   0.27373   0.19442   0.00000  Uiso   1.00
H77    H     0.50004   0.14814   0.74489   0.00000  Uiso   1.00
H78    H     0.59862   0.11901   0.86104   0.00000  Uiso   1.00
H79    H     0.50005   0.19085   0.49557   0.00000  Uiso   1.00
H80    H     0.40145   0.11897   0.86090   0.00000  Uiso   1.00
H81    H     0.70791   0.11135   0.01672   0.00000  Uiso   1.00
H82    H     0.50005   0.26282   0.24611   0.00000  Uiso   1.00
H83    H     0.29214   0.11124   0.01649   0.00000  Uiso   1.00
O84    O     0.77273   0.17686   0.18581   0.00000  Uiso   1.00
O85    O     0.50003   0.37559   0.17479   0.00000  Uiso   1.00
O86    O     0.22725   0.17672   0.18552   0.00000  Uiso   1.00
N87    N     0.69433   0.23959   0.13686   0.00000  Uiso   1.00
N88    N     0.50001   0.38121   0.41638   0.00000  Uiso   1.00
N89    N     0.30562   0.23950   0.13659   0.00000  Uiso   1.00
N90    N     0.69436   0.15215   0.04112   0.00000  Uiso   1.00
N91    N     0.50004   0.29377   0.32064   0.00000  Uiso   1.00
N92    N     0.30565   0.15207   0.04085   0.00000  Uiso   1.00
C93    C     0.79445   0.00001   0.40511   0.00000  Uiso   1.00
C94    C     0.75796   0.94645   0.44560   0.00000  Uiso   1.00
C95    C     0.77598   0.90143   0.53296   0.00000  Uiso   1.00
C96    C     0.73614   0.85633   0.55703   0.00000  Uiso   1.00
C97    C     0.68799   0.77315   0.62915   0.00000  Uiso   1.00
C98    C     0.79699  -0.00001   0.24702   0.00000  Uiso   1.00
C99    C     0.84783   0.00000   0.16743   0.00000  Uiso   1.00
C100   C     0.84084   0.99998   0.02434   0.00000  Uiso   1.00
C101   C     0.85329   0.99998   0.78817   0.00000  Uiso   1.00
C102   C     0.75793   0.05356   0.44553   0.00000  Uiso   1.00
C103   C     0.77594   0.09862   0.53282   0.00000  Uiso   1.00
C104   C     0.73607   0.14371   0.55683   0.00000  Uiso   1.00
C105   C     0.68788   0.22687   0.62887   0.00000  Uiso   1.00
C106   C     0.69163   0.99998   0.29251   0.00000  Uiso   1.00
C107   C     0.70211   0.94643   0.38444   0.00000  Uiso   1.00
C108   C     0.66222   0.90139   0.40839   0.00000  Uiso   1.00
C109   C     0.68019   0.85631   0.49577   0.00000  Uiso   1.00
C110   C     0.74114   0.99997   0.18586   0.00000  Uiso   1.00
C111   C     0.73408   0.99996   0.04286   0.00000  Uiso   1.00
C112   C     0.78489   0.99997   0.96307   0.00000  Uiso   1.00
C113   C     0.70208   0.05354   0.38438   0.00000  Uiso   1.00
C114   C     0.66218   0.09858   0.40825   0.00000  Uiso   1.00
C115   C     0.68012   0.14369   0.49556   0.00000  Uiso   1.00
H116   H     0.83793   0.00003   0.45272   0.00000  Uiso   1.00
H117   H     0.81921   0.90146   0.58026   0.00000  Uiso   1.00
H118   H     0.89105   0.00002   0.21479   0.00000  Uiso   1.00
H119   H     0.81916   0.09862   0.58012   0.00000  Uiso   1.00
H120   H     0.77384   0.79215   0.69465   0.00000  Uiso   1.00
H121   H     0.92531   0.00000   0.92404   0.00000  Uiso   1.00
H122   H     0.77373   0.20792   0.69442   0.00000  Uiso   1.00
H123   H     0.64814   0.99996   0.24489   0.00000  Uiso   1.00
H124   H     0.61901   0.90138   0.36104   0.00000  Uiso   1.00
H125   H     0.69085   0.99995   0.99557   0.00000  Uiso   1.00
H126   H     0.61897   0.09855   0.36090   0.00000  Uiso   1.00
H127   H     0.61135   0.79209   0.51672   0.00000  Uiso   1.00
H128   H     0.76282   0.99995   0.74611   0.00000  Uiso   1.00
H129   H     0.61124   0.20786   0.51649   0.00000  Uiso   1.00
O130   O     0.67686   0.72727   0.68581   0.00000  Uiso   1.00
O131   O     0.87559   0.99997   0.67479   0.00000  Uiso   1.00
O132   O     0.67672   0.27275   0.68552   0.00000  Uiso   1.00
N133   N     0.73959   0.80567   0.63686   0.00000  Uiso   1.00
N134   N     0.88121  -0.00001   0.91638   0.00000  Uiso   1.00
N135   N     0.73950   0.19438   0.63659   0.00000  Uiso   1.00
N136   N     0.65215   0.80564   0.54112   0.00000  Uiso   1.00
N137   N     0.79377   0.99996   0.82064   0.00000  Uiso   1.00
N138   N     0.65207   0.19435   0.54085   0.00000  Uiso   1.00
C139   C     0.20555   0.99999   0.40511   0.00000  Uiso   1.00
C140   C     0.24204   0.05355   0.44560   0.00000  Uiso   1.00
C141   C     0.22402   0.09857   0.53296   0.00000  Uiso   1.00
C142   C     0.26386   0.14367   0.55703   0.00000  Uiso   1.00
C143   C     0.31201   0.22685   0.62915   0.00000  Uiso   1.00
C144   C     0.20301   0.00001   0.24702   0.00000  Uiso   1.00
C145   C     0.15217  -0.00000   0.16743   0.00000  Uiso   1.00
C146   C     0.15916   0.00002   0.02434   0.00000  Uiso   1.00
C147   C     0.14671   0.00002   0.78817   0.00000  Uiso   1.00
C148   C     0.24207   0.94644   0.44553   0.00000  Uiso   1.00
C149   C     0.22406   0.90138   0.53282   0.00000  Uiso   1.00
C150   C     0.26393   0.85629   0.55683   0.00000  Uiso   1.00
C151   C     0.31212   0.77313   0.62887   0.00000  Uiso   1.00
C152   C     0.30837   0.00002   0.29251   0.00000  Uiso   1.00
C153   C     0.29789   0.05357   0.38444   0.00000  Uiso   1.00
C154   C     0.33778   0.09861   0.40839   0.00000  Uiso   1.00
C155   C     0.31981   0.14369   0.49577   0.00000  Uiso   1.00
C156   C     0.25886   0.00003   0.18586   0.00000  Uiso   1.00
C157   C     0.26592   0.00004   0.04286   0.00000  Uiso   1.00
C158   C     0.21511   0.00003   0.96307   0.00000  Uiso   1.00
C159   C     0.29792   0.94646   0.38438   0.00000  Uiso   1.00
C160   C     0.33782   0.90142   0.40825   0.00000  Uiso   1.00
C161   C     0.31988   0.85631   0.49556   0.00000  Uiso   1.00
H162   H     0.16207   0.99997   0.45272   0.00000  Uiso   1.00
H163   H     0.18079   0.09854   0.58026   0.00000  Uiso   1.00
H164   H     0.10895   0.99998   0.21479   0.00000  Uiso   1.00
H165   H     0.18084   0.90138   0.58012   0.00000  Uiso   1.00
H166   H     0.22616   0.20785   0.69465   0.00000  Uiso   1.00
H167   H     0.07469  -0.00000   0.92404   0.00000  Uiso   1.00
H168   H     0.22627   0.79208   0.69442   0.00000  Uiso   1.00
H169   H     0.35186   0.00004   0.24489   0.00000  Uiso   1.00
H170   H     0.38099   0.09862   0.36104   0.00000  Uiso   1.00
H171   H     0.30915   0.00005   0.99557   0.00000  Uiso   1.00
H172   H     0.38103   0.90145   0.36090   0.00000  Uiso   1.00
H173   H     0.38865   0.20791   0.51672   0.00000  Uiso   1.00
H174   H     0.23718   0.00005   0.74611   0.00000  Uiso   1.00
H175   H     0.38876   0.79214   0.51649   0.00000  Uiso   1.00
O176   O     0.32314   0.27273   0.68581   0.00000  Uiso   1.00
O177   O     0.12441   0.00003   0.67479   0.00000  Uiso   1.00
O178   O     0.32328   0.72725   0.68552   0.00000  Uiso   1.00
N179   N     0.26041   0.19433   0.63686   0.00000  Uiso   1.00
N180   N     0.11879   0.00001   0.91638   0.00000  Uiso   1.00
N181   N     0.26050   0.80562   0.63659   0.00000  Uiso   1.00
N182   N     0.34785   0.19436   0.54112   0.00000  Uiso   1.00
N183   N     0.20623   0.00004   0.82064   0.00000  Uiso   1.00
N184   N     0.34793   0.80565   0.54085   0.00000  Uiso   1.00
C185   C     0.99999   0.20555   0.59489   0.00000  Uiso   1.00
C186   C     0.05355   0.24204   0.55440   0.00000  Uiso   1.00
C187   C     0.09857   0.22402   0.46704   0.00000  Uiso   1.00
C188   C     0.14367   0.26386   0.44297   0.00000  Uiso   1.00
C189   C     0.22685   0.31201   0.37085   0.00000  Uiso   1.00
C190   C     0.00001   0.20301   0.75298   0.00000  Uiso   1.00
C191   C    -0.00000   0.15217   0.83257   0.00000  Uiso   1.00
C192   C     0.00002   0.15916   0.97566   0.00000  Uiso   1.00
C193   C     0.00002   0.14671   0.21183   0.00000  Uiso   1.00
C194   C     0.94644   0.24207   0.55447   0.00000  Uiso   1.00
C195   C     0.90138   0.22406   0.46718   0.00000  Uiso   1.00
C196   C     0.85629   0.26393   0.44317   0.00000  Uiso   1.00
C197   C     0.77313   0.31212   0.37113   0.00000  Uiso   1.00
C198   C     0.00002   0.30837   0.70749   0.00000  Uiso   1.00
C199   C     0.05357   0.29789   0.61556   0.00000  Uiso   1.00
C200   C     0.09861   0.33778   0.59161   0.00000  Uiso   1.00
C201   C     0.14369   0.31981   0.50423   0.00000  Uiso   1.00
C202   C     0.00003   0.25886   0.81414   0.00000  Uiso   1.00
C203   C     0.00004   0.26592   0.95714   0.00000  Uiso   1.00
C204   C     0.00003   0.21511   0.03693   0.00000  Uiso   1.00
C205   C     0.94646   0.29792   0.61562   0.00000  Uiso   1.00
C206   C     0.90142   0.33782   0.59175   0.00000  Uiso   1.00
C207   C     0.85631   0.31988   0.50444   0.00000  Uiso   1.00
H208   H     0.99997   0.16207   0.54728   0.00000  Uiso   1.00
H209   H     0.09854   0.18079   0.41974   0.00000  Uiso   1.00
H210   H     0.99998   0.10895   0.78521   0.00000  Uiso   1.00
H211   H     0.90138   0.18084   0.41988   0.00000  Uiso   1.00
H212   H     0.20785   0.22616   0.30535   0.00000  Uiso   1.00
H213   H    -0.00000   0.07469   0.07596   0.00000  Uiso   1.00
H214   H     0.79208   0.22627   0.30558   0.00000  Uiso   1.00
H215   H     0.00004   0.35186   0.75511   0.00000  Uiso   1.00
H216   H     0.09862   0.38099   0.63896   0.00000  Uiso   1.00
H217   H     0.00005   0.30915   0.00443   0.00000  Uiso   1.00
H218   H     0.90145   0.38103   0.63910   0.00000  Uiso   1.00
H219   H     0.20791   0.38865   0.48328   0.00000  Uiso   1.00
H220   H     0.00005   0.23718   0.25389   0.00000  Uiso   1.00
H221   H     0.79214   0.38876   0.48351   0.00000  Uiso   1.00
O222   O     0.27273   0.32314   0.31419   0.00000  Uiso   1.00
O223   O     0.00003   0.12441   0.32521   0.00000  Uiso   1.00
O224   O     0.72725   0.32328   0.31448   0.00000  Uiso   1.00
N225   N     0.19433   0.26041   0.36314   0.00000  Uiso   1.00
N226   N     0.00001   0.11879   0.08362   0.00000  Uiso   1.00
N227   N     0.80562   0.26050   0.36341   0.00000  Uiso   1.00
N228   N     0.19436   0.34785   0.45888   0.00000  Uiso   1.00
N229   N     0.00004   0.20623   0.17936   0.00000  Uiso   1.00
N230   N     0.80565   0.34793   0.45915   0.00000  Uiso   1.00
C231   C     0.00001   0.79445   0.59489   0.00000  Uiso   1.00
C232   C     0.94645   0.75796   0.55440   0.00000  Uiso   1.00
C233   C     0.90143   0.77598   0.46704   0.00000  Uiso   1.00
C234   C     0.85633   0.73614   0.44297   0.00000  Uiso   1.00
C235   C     0.77315   0.68799   0.37085   0.00000  Uiso   1.00
C236   C    -0.00001   0.79699   0.75298   0.00000  Uiso   1.00
C237   C     0.00000   0.84783   0.83257   0.00000  Uiso   1.00
C238   C     0.99998   0.84084   0.97566   0.00000  Uiso   1.00
C239   C     0.99998   0.85329   0.21183   0.00000  Uiso   1.00
C240   C     0.05356   0.75793   0.55447   0.00000  Uiso   1.00
C241   C     0.09862   0.77594   0.46718   0.00000  Uiso   1.00
C242   C     0.14371   0.73607   0.44317   0.00000  Uiso   1.00
C243   C     0.22687   0.68788   0.37113   0.00000  Uiso   1.00
C244   C     0.99998   0.69163   0.70749   0.00000  Uiso   1.00
C245   C     0.94643   0.70211   0.61556   0.00000  Uiso   1.00
C246   C     0.90139   0.66222   0.59161   0.00000  Uiso   1.00
C247   C     0.85631   0.68019   0.50423   0.00000  Uiso   1.00
C248   C     0.99997   0.74114   0.81414   0.00000  Uiso   1.00
C249   C     0.99996   0.73408   0.95714   0.00000  Uiso   1.00
C250   C     0.99997   0.78489   0.03693   0.00000  Uiso   1.00
C251   C     0.05354   0.70208   0.61562   0.00000  Uiso   1.00
C252   C     0.09858   0.66218   0.59175   0.00000  Uiso   1.00
C253   C     0.14369   0.68012   0.50444   0.00000  Uiso   1.00
H254   H     0.00003   0.83793   0.54728   0.00000  Uiso   1.00
H255   H     0.90146   0.81921   0.41974   0.00000  Uiso   1.00
H256   H     0.00002   0.89105   0.78521   0.00000  Uiso   1.00
H257   H     0.09862   0.81916   0.41988   0.00000  Uiso   1.00
H258   H     0.79215   0.77384   0.30535   0.00000  Uiso   1.00
H259   H     0.00000   0.92531   0.07596   0.00000  Uiso   1.00
H260   H     0.20792   0.77373   0.30558   0.00000  Uiso   1.00
H261   H     0.99996   0.64814   0.75511   0.00000  Uiso   1.00
H262   H     0.90138   0.61901   0.63896   0.00000  Uiso   1.00
H263   H     0.99995   0.69085   0.00443   0.00000  Uiso   1.00
H264   H     0.09855   0.61897   0.63910   0.00000  Uiso   1.00
H265   H     0.79209   0.61135   0.48328   0.00000  Uiso   1.00
H266   H     0.99995   0.76282   0.25389   0.00000  Uiso   1.00
H267   H     0.20786   0.61124   0.48351   0.00000  Uiso   1.00
O268   O     0.72727   0.67686   0.31419   0.00000  Uiso   1.00
O269   O     0.99997   0.87559   0.32521   0.00000  Uiso   1.00
O270   O     0.27275   0.67672   0.31448   0.00000  Uiso   1.00
N271   N     0.80567   0.73959   0.36314   0.00000  Uiso   1.00
N272   N    -0.00001   0.88121   0.08362   0.00000  Uiso   1.00
N273   N     0.19438   0.73950   0.36341   0.00000  Uiso   1.00
N274   N     0.80564   0.65215   0.45888   0.00000  Uiso   1.00
N275   N     0.99996   0.79377   0.17936   0.00000  Uiso   1.00
N276   N     0.19435   0.65207   0.45915   0.00000  Uiso   1.00
C277   C     0.70555   0.50001   0.09489   0.00000  Uiso   1.00
C278   C     0.74204   0.44645   0.05440   0.00000  Uiso   1.00
C279   C     0.72402   0.40143   0.96704   0.00000  Uiso   1.00
C280   C     0.76386   0.35633   0.94297   0.00000  Uiso   1.00
C281   C     0.81201   0.27315   0.87085   0.00000  Uiso   1.00
C282   C     0.70301   0.49999   0.25298   0.00000  Uiso   1.00
C283   C     0.65217   0.50000   0.33257   0.00000  Uiso   1.00
C284   C     0.65916   0.49998   0.47566   0.00000  Uiso   1.00
C285   C     0.64671   0.49998   0.71183   0.00000  Uiso   1.00
C286   C     0.74207   0.55356   0.05447   0.00000  Uiso   1.00
C287   C     0.72406   0.59862   0.96718   0.00000  Uiso   1.00
C288   C     0.76393   0.64371   0.94317   0.00000  Uiso   1.00
C289   C     0.81212   0.72687   0.87113   0.00000  Uiso   1.00
C290   C     0.80837   0.49998   0.20749   0.00000  Uiso   1.00
C291   C     0.79789   0.44643   0.11556   0.00000  Uiso   1.00
C292   C     0.83778   0.40139   0.09161   0.00000  Uiso   1.00
C293   C     0.81981   0.35631   0.00423   0.00000  Uiso   1.00
C294   C     0.75886   0.49997   0.31414   0.00000  Uiso   1.00
C295   C     0.76592   0.49996   0.45714   0.00000  Uiso   1.00
C296   C     0.71511   0.49997   0.53693   0.00000  Uiso   1.00
C297   C     0.79792   0.55354   0.11562   0.00000  Uiso   1.00
C298   C     0.83782   0.59858   0.09175   0.00000  Uiso   1.00
C299   C     0.81988   0.64369   0.00444   0.00000  Uiso   1.00
H300   H     0.66207   0.50003   0.04728   0.00000  Uiso   1.00
H301   H     0.68079   0.40146   0.91974   0.00000  Uiso   1.00
H302   H     0.60895   0.50002   0.28521   0.00000  Uiso   1.00
H303   H     0.68084   0.59862   0.91988   0.00000  Uiso   1.00
H304   H     0.72616   0.29215   0.80535   0.00000  Uiso   1.00
H305   H     0.57469   0.50000   0.57596   0.00000  Uiso   1.00
H306   H     0.72627   0.70792   0.80558   0.00000  Uiso   1.00
H307   H     0.85186   0.49996   0.25511   0.00000  Uiso   1.00
H308   H     0.88099   0.40138   0.13896   0.00000  Uiso   1.00
H309   H     0.80915   0.49995   0.50443   0.00000  Uiso   1.00
H310   H     0.88103   0.59855   0.13910   0.00000  Uiso   1.00
H311   H     0.88865   0.29209   0.98328   0.00000  Uiso   1.00
H312   H     0.73718   0.49995   0.75389   0.00000  Uiso   1.00
H313   H     0.88876   0.70786   0.98351   0.00000  Uiso   1.00
O314   O     0.82314   0.22727   0.81419   0.00000  Uiso   1.00
O315   O     0.62441   0.49997   0.82521   0.00000  Uiso   1.00
O316   O     0.82328   0.77275   0.81448   0.00000  Uiso   1.00
N317   N     0.76041   0.30567   0.86314   0.00000  Uiso   1.00
N318   N     0.61879   0.49999   0.58362   0.00000  Uiso   1.00
N319   N     0.76050   0.69438   0.86341   0.00000  Uiso   1.00
N320   N     0.84785   0.30564   0.95888   0.00000  Uiso   1.00
N321   N     0.70623   0.49996   0.67936   0.00000  Uiso   1.00
N322   N     0.84793   0.69435   0.95915   0.00000  Uiso   1.00
C323   C     0.29445   0.49999   0.09489   0.00000  Uiso   1.00
C324   C     0.25796   0.55355   0.05440   0.00000  Uiso   1.00
C325   C     0.27598   0.59857   0.96704   0.00000  Uiso   1.00
C326   C     0.23614   0.64367   0.94297   0.00000  Uiso   1.00
C327   C     0.18799   0.72685   0.87085   0.00000  Uiso   1.00
C328   C     0.29699   0.50001   0.25298   0.00000  Uiso   1.00
C329   C     0.34783   0.50000   0.33257   0.00000  Uiso   1.00
C330   C     0.34084   0.50002   0.47566   0.00000  Uiso   1.00
C331   C     0.35329   0.50002   0.71183   0.00000  Uiso   1.00
C332   C     0.25793   0.44644   0.05447   0.00000  Uiso   1.00
C333   C     0.27594   0.40138   0.96718   0.00000  Uiso   1.00
C334   C     0.23607   0.35629   0.94317   0.00000  Uiso   1.00
C335   C     0.18788   0.27313   0.87113   0.00000  Uiso   1.00
C336   C     0.19163   0.50002   0.20749   0.00000  Uiso   1.00
C337   C     0.20211   0.55357   0.11556   0.00000  Uiso   1.00
C338   C     0.16222   0.59861   0.09161   0.00000  Uiso   1.00
C339   C     0.18019   0.64369   0.00423   0.00000  Uiso   1.00
C340   C     0.24114   0.50003   0.31414   0.00000  Uiso   1.00
C341   C     0.23408   0.50004   0.45714   0.00000  Uiso   1.00
C342   C     0.28489   0.50003   0.53693   0.00000  Uiso   1.00
C343   C     0.20208   0.44646   0.11562   0.00000  Uiso   1.00
C344   C     0.16218   0.40142   0.09175   0.00000  Uiso   1.00
C345   C     0.18012   0.35631   0.00444   0.00000  Uiso   1.00
H346   H     0.33793   0.49997   0.04728   0.00000  Uiso   1.00
H347   H     0.31921   0.59854   0.91974   0.00000  Uiso   1.00
H348   H     0.39105   0.49998   0.28521   0.00000  Uiso   1.00
H349   H     0.31916   0.40138   0.91988   0.00000  Uiso   1.00
H350   H     0.27384   0.70785   0.80535   0.00000  Uiso   1.00
H351   H     0.42531   0.50000   0.57596   0.00000  Uiso   1.00
H352   H     0.27373   0.29208   0.80558   0.00000  Uiso   1.00
H353   H     0.14814   0.50004   0.25511   0.00000  Uiso   1.00
H354   H     0.11901   0.59862   0.13896   0.00000  Uiso   1.00
H355   H     0.19085   0.50005   0.50443   0.00000  Uiso   1.00
H356   H     0.11897   0.40145   0.13910   0.00000  Uiso   1.00
H357   H     0.11135   0.70791   0.98328   0.00000  Uiso   1.00
H358   H     0.26282   0.50005   0.75389   0.00000  Uiso   1.00
H359   H     0.11124   0.29214   0.98351   0.00000  Uiso   1.00
O360   O     0.17686   0.77273   0.81419   0.00000  Uiso   1.00
O361   O     0.37559   0.50003   0.82521   0.00000  Uiso   1.00
O362   O     0.17672   0.22725   0.81448   0.00000  Uiso   1.00
N363   N     0.23959   0.69433   0.86314   0.00000  Uiso   1.00
N364   N     0.38121   0.50001   0.58362   0.00000  Uiso   1.00
N365   N     0.23950   0.30562   0.86341   0.00000  Uiso   1.00
N366   N     0.15215   0.69436   0.95888   0.00000  Uiso   1.00
N367   N     0.29377   0.50004   0.67936   0.00000  Uiso   1.00
N368   N     0.15207   0.30565   0.95915   0.00000  Uiso   1.00
