data_job_02906
_audit_creation_date              2018-12-19
_audit_creation_method            'Materials Studio'
_symmetry_space_group_name_H-M    'P1'
_symmetry_Int_Tables_number       1
_symmetry_cell_setting            triclinic
loop_
_symmetry_equiv_pos_as_xyz
  x,y,z
_cell_length_a                    17.2852
_cell_length_b                    17.2852
_cell_length_c                    21.3735
_cell_angle_alpha                 90.0000
_cell_angle_beta                  90.0000
_cell_angle_gamma                 120.0000
loop_
_atom_site_label
_atom_site_type_symbol
_atom_site_fract_x
_atom_site_fract_y
_atom_site_fract_z
_atom_site_U_iso_or_equiv
_atom_site_adp_type
_atom_site_occupancy
C1     C     0.45194   0.54963   0.31039   0.00000  Uiso   1.00
C2     C     0.35766   0.50224   0.28338   0.00000  Uiso   1.00
C3     C     0.27905   0.46309   0.31781   0.00000  Uiso   1.00
C4     C     0.19955   0.42304   0.28436   0.00000  Uiso   1.00
C5     C     0.05326   0.34952   0.25238   0.00000  Uiso   1.00
C6     C     0.49867   0.50238   0.28287   0.00000  Uiso   1.00
C7     C     0.53864   0.46336   0.31687   0.00000  Uiso   1.00
C8     C     0.57785   0.42344   0.28298   0.00000  Uiso   1.00
C9     C     0.65055   0.35020   0.25022   0.00000  Uiso   1.00
C10    C     0.49853   0.64325   0.28226   0.00000  Uiso   1.00
C11    C     0.53841   0.72268   0.31574   0.00000  Uiso   1.00
C12    C     0.57752   0.80136   0.28135   0.00000  Uiso   1.00
C13    C     0.65001   0.94685   0.24763   0.00000  Uiso   1.00
C14    C     0.45053   0.54812   0.18977   0.00000  Uiso   1.00
C15    C     0.35689   0.50141   0.21786   0.00000  Uiso   1.00
C16    C     0.27748   0.46142   0.18435   0.00000  Uiso   1.00
C17    C     0.19877   0.42222   0.21872   0.00000  Uiso   1.00
C18    C     0.49790   0.50155   0.21735   0.00000  Uiso   1.00
C19    C     0.53707   0.46169   0.18341   0.00000  Uiso   1.00
C20    C     0.57708   0.42262   0.21735   0.00000  Uiso   1.00
C21    C     0.49776   0.64243   0.21674   0.00000  Uiso   1.00
C22    C     0.53683   0.72101   0.18229   0.00000  Uiso   1.00
C23    C     0.57675   0.80054   0.21571   0.00000  Uiso   1.00
H24    H     0.45255   0.55027   0.36140   0.00000  Uiso   1.00
H25    H     0.27968   0.46373   0.36851   0.00000  Uiso   1.00
H26    H     0.53923   0.46401   0.36757   0.00000  Uiso   1.00
H27    H     0.53899   0.72329   0.36644   0.00000  Uiso   1.00
H28    H     0.08768   0.36739   0.34750   0.00000  Uiso   1.00
H29    H     0.63499   0.36801   0.34552   0.00000  Uiso   1.00
H30    H     0.63449   0.91475   0.34315   0.00000  Uiso   1.00
H31    H     0.44993   0.54748   0.13876   0.00000  Uiso   1.00
H32    H     0.27691   0.46079   0.13365   0.00000  Uiso   1.00
H33    H     0.53647   0.46107   0.13271   0.00000  Uiso   1.00
H34    H     0.53622   0.72035   0.13159   0.00000  Uiso   1.00
H35    H     0.08543   0.36500   0.15688   0.00000  Uiso   1.00
H36    H     0.63275   0.36563   0.15490   0.00000  Uiso   1.00
H37    H     0.63224   0.91236   0.15253   0.00000  Uiso   1.00
O38    O     0.97279   0.30919   0.25284   0.00000  Uiso   1.00
O39    O     0.69086   0.31002   0.25025   0.00000  Uiso   1.00
O40    O     0.69019   0.02732   0.24714   0.00000  Uiso   1.00
N41    N     0.11089   0.37874   0.30334   0.00000  Uiso   1.00
N42    N     0.62259   0.37931   0.30148   0.00000  Uiso   1.00
N43    N     0.62214   0.89046   0.29927   0.00000  Uiso   1.00
N44    N     0.10969   0.37746   0.20076   0.00000  Uiso   1.00
N45    N     0.62138   0.37803   0.19891   0.00000  Uiso   1.00
N46    N     0.62093   0.88918   0.19670   0.00000  Uiso   1.00
C47    C     0.45037   0.90231   0.97706   0.00000  Uiso   1.00
C48    C     0.49776   0.85542   0.95005   0.00000  Uiso   1.00
C49    C     0.53691   0.81597   0.98447   0.00000  Uiso   1.00
C50    C     0.57696   0.77651   0.95102   0.00000  Uiso   1.00
C51    C     0.65048   0.70374   0.91905   0.00000  Uiso   1.00
C52    C     0.49762   0.99630   0.94954   0.00000  Uiso   1.00
C53    C     0.53664   0.07528   0.98353   0.00000  Uiso   1.00
C54    C     0.57656   0.15442   0.94965   0.00000  Uiso   1.00
C55    C     0.64980   0.30035   0.91688   0.00000  Uiso   1.00
C56    C     0.35675   0.85529   0.94893   0.00000  Uiso   1.00
C57    C     0.27732   0.81573   0.98241   0.00000  Uiso   1.00
C58    C     0.19864   0.77616   0.94801   0.00000  Uiso   1.00
C59    C     0.05315   0.70315   0.91430   0.00000  Uiso   1.00
C60    C     0.45188   0.90240   0.85643   0.00000  Uiso   1.00
C61    C     0.49859   0.85548   0.88453   0.00000  Uiso   1.00
C62    C     0.53858   0.81607   0.85102   0.00000  Uiso   1.00
C63    C     0.57778   0.77656   0.88539   0.00000  Uiso   1.00
C64    C     0.49845   0.99635   0.88402   0.00000  Uiso   1.00
C65    C     0.53831   0.07538   0.85008   0.00000  Uiso   1.00
C66    C     0.57738   0.15447   0.88401   0.00000  Uiso   1.00
C67    C     0.35757   0.85533   0.88341   0.00000  Uiso   1.00
C68    C     0.27899   0.81583   0.84895   0.00000  Uiso   1.00
C69    C     0.19946   0.77621   0.88238   0.00000  Uiso   1.00
H70    H     0.44973   0.90228   0.02807   0.00000  Uiso   1.00
H71    H     0.53627   0.81595   0.03518   0.00000  Uiso   1.00
H72    H     0.53599   0.07522   0.03424   0.00000  Uiso   1.00
H73    H     0.27671   0.81570   0.03311   0.00000  Uiso   1.00
H74    H     0.63261   0.72029   0.01417   0.00000  Uiso   1.00
H75    H     0.63199   0.26698   0.01218   0.00000  Uiso   1.00
H76    H     0.08525   0.71974   0.00981   0.00000  Uiso   1.00
H77    H     0.45252   0.90244   0.80542   0.00000  Uiso   1.00
H78    H     0.53921   0.81612   0.80031   0.00000  Uiso   1.00
H79    H     0.53893   0.07540   0.79938   0.00000  Uiso   1.00
H80    H     0.27965   0.81588   0.79825   0.00000  Uiso   1.00
H81    H     0.63500   0.72043   0.82354   0.00000  Uiso   1.00
H82    H     0.63437   0.26712   0.82156   0.00000  Uiso   1.00
H83    H     0.08764   0.71988   0.81919   0.00000  Uiso   1.00
O84    O     0.69081   0.66360   0.91951   0.00000  Uiso   1.00
O85    O     0.68998   0.38083   0.91691   0.00000  Uiso   1.00
O86    O     0.97268   0.66286   0.91380   0.00000  Uiso   1.00
N87    N     0.62126   0.73215   0.97000   0.00000  Uiso   1.00
N88    N     0.62069   0.24328   0.96815   0.00000  Uiso   1.00
N89    N     0.10954   0.73167   0.96594   0.00000  Uiso   1.00
N90    N     0.62254   0.73223   0.86743   0.00000  Uiso   1.00
N91    N     0.62197   0.24335   0.86558   0.00000  Uiso   1.00
N92    N     0.11082   0.73175   0.86336   0.00000  Uiso   1.00
C93    C     0.09769   0.54806   0.64372   0.00000  Uiso   1.00
C94    C     0.14458   0.64234   0.61671   0.00000  Uiso   1.00
C95    C     0.18403   0.72095   0.65114   0.00000  Uiso   1.00
C96    C     0.22349   0.80045   0.61769   0.00000  Uiso   1.00
C97    C     0.29626   0.94674   0.58571   0.00000  Uiso   1.00
C98    C     0.00370   0.50133   0.61620   0.00000  Uiso   1.00
C99    C     0.92472   0.46136   0.65020   0.00000  Uiso   1.00
C100   C     0.84558   0.42215   0.61632   0.00000  Uiso   1.00
C101   C     0.69965   0.34945   0.58355   0.00000  Uiso   1.00
C102   C     0.14471   0.50147   0.61559   0.00000  Uiso   1.00
C103   C     0.18427   0.46159   0.64908   0.00000  Uiso   1.00
C104   C     0.22384   0.42248   0.61468   0.00000  Uiso   1.00
C105   C     0.29685   0.34999   0.58097   0.00000  Uiso   1.00
C106   C     0.09760   0.54947   0.52310   0.00000  Uiso   1.00
C107   C     0.14452   0.64311   0.55119   0.00000  Uiso   1.00
C108   C     0.18393   0.72252   0.51768   0.00000  Uiso   1.00
C109   C     0.22344   0.80123   0.55205   0.00000  Uiso   1.00
C110   C     0.00365   0.50210   0.55069   0.00000  Uiso   1.00
C111   C     0.92462   0.46293   0.51674   0.00000  Uiso   1.00
C112   C     0.84553   0.42292   0.55068   0.00000  Uiso   1.00
C113   C     0.14467   0.50224   0.55007   0.00000  Uiso   1.00
C114   C     0.18417   0.46317   0.51562   0.00000  Uiso   1.00
C115   C     0.22379   0.42325   0.54904   0.00000  Uiso   1.00
H116   H     0.09772   0.54745   0.69473   0.00000  Uiso   1.00
H117   H     0.18405   0.72032   0.70184   0.00000  Uiso   1.00
H118   H     0.92478   0.46077   0.70090   0.00000  Uiso   1.00
H119   H     0.18430   0.46101   0.69978   0.00000  Uiso   1.00
H120   H     0.27971   0.91232   0.68083   0.00000  Uiso   1.00
H121   H     0.73302   0.36501   0.67885   0.00000  Uiso   1.00
H122   H     0.28026   0.36551   0.67648   0.00000  Uiso   1.00
H123   H     0.09756   0.55007   0.47209   0.00000  Uiso   1.00
H124   H     0.18388   0.72309   0.46698   0.00000  Uiso   1.00
H125   H     0.92460   0.46353   0.46604   0.00000  Uiso   1.00
H126   H     0.18412   0.46378   0.46492   0.00000  Uiso   1.00
H127   H     0.27957   0.91457   0.49021   0.00000  Uiso   1.00
H128   H     0.73288   0.36725   0.48823   0.00000  Uiso   1.00
H129   H     0.28012   0.36776   0.48586   0.00000  Uiso   1.00
O130   O     0.33640   0.02721   0.58618   0.00000  Uiso   1.00
O131   O     0.61917   0.30914   0.58358   0.00000  Uiso   1.00
O132   O     0.33714   0.30981   0.58047   0.00000  Uiso   1.00
N133   N     0.26785   0.88911   0.63667   0.00000  Uiso   1.00
N134   N     0.75672   0.37741   0.63482   0.00000  Uiso   1.00
N135   N     0.26833   0.37786   0.63260   0.00000  Uiso   1.00
N136   N     0.26777   0.89031   0.53410   0.00000  Uiso   1.00
N137   N     0.75665   0.37862   0.53225   0.00000  Uiso   1.00
N138   N     0.26825   0.37907   0.53003   0.00000  Uiso   1.00
C139   C     0.54963   0.45194   0.68961   0.00000  Uiso   1.00
C140   C     0.50224   0.35766   0.71662   0.00000  Uiso   1.00
C141   C     0.46309   0.27905   0.68219   0.00000  Uiso   1.00
C142   C     0.42304   0.19955   0.71564   0.00000  Uiso   1.00
C143   C     0.34952   0.05326   0.74762   0.00000  Uiso   1.00
C144   C     0.50238   0.49867   0.71713   0.00000  Uiso   1.00
C145   C     0.46336   0.53864   0.68313   0.00000  Uiso   1.00
C146   C     0.42344   0.57785   0.71702   0.00000  Uiso   1.00
C147   C     0.35020   0.65055   0.74978   0.00000  Uiso   1.00
C148   C     0.64325   0.49853   0.71774   0.00000  Uiso   1.00
C149   C     0.72268   0.53841   0.68426   0.00000  Uiso   1.00
C150   C     0.80136   0.57752   0.71865   0.00000  Uiso   1.00
C151   C     0.94685   0.65001   0.75237   0.00000  Uiso   1.00
C152   C     0.54812   0.45053   0.81023   0.00000  Uiso   1.00
C153   C     0.50141   0.35689   0.78214   0.00000  Uiso   1.00
C154   C     0.46142   0.27748   0.81565   0.00000  Uiso   1.00
C155   C     0.42222   0.19877   0.78128   0.00000  Uiso   1.00
C156   C     0.50155   0.49790   0.78265   0.00000  Uiso   1.00
C157   C     0.46169   0.53707   0.81659   0.00000  Uiso   1.00
C158   C     0.42262   0.57708   0.78265   0.00000  Uiso   1.00
C159   C     0.64243   0.49776   0.78326   0.00000  Uiso   1.00
C160   C     0.72101   0.53683   0.81771   0.00000  Uiso   1.00
C161   C     0.80054   0.57675   0.78429   0.00000  Uiso   1.00
H162   H     0.55027   0.45255   0.63860   0.00000  Uiso   1.00
H163   H     0.46373   0.27968   0.63149   0.00000  Uiso   1.00
H164   H     0.46401   0.53923   0.63243   0.00000  Uiso   1.00
H165   H     0.72329   0.53899   0.63356   0.00000  Uiso   1.00
H166   H     0.36739   0.08768   0.65250   0.00000  Uiso   1.00
H167   H     0.36801   0.63499   0.65448   0.00000  Uiso   1.00
H168   H     0.91475   0.63449   0.65685   0.00000  Uiso   1.00
H169   H     0.54748   0.44993   0.86124   0.00000  Uiso   1.00
H170   H     0.46079   0.27691   0.86635   0.00000  Uiso   1.00
H171   H     0.46107   0.53647   0.86729   0.00000  Uiso   1.00
H172   H     0.72035   0.53622   0.86841   0.00000  Uiso   1.00
H173   H     0.36500   0.08543   0.84312   0.00000  Uiso   1.00
H174   H     0.36563   0.63275   0.84510   0.00000  Uiso   1.00
H175   H     0.91236   0.63224   0.84747   0.00000  Uiso   1.00
O176   O     0.30919   0.97279   0.74716   0.00000  Uiso   1.00
O177   O     0.31002   0.69086   0.74975   0.00000  Uiso   1.00
O178   O     0.02732   0.69019   0.75286   0.00000  Uiso   1.00
N179   N     0.37874   0.11089   0.69666   0.00000  Uiso   1.00
N180   N     0.37931   0.62259   0.69852   0.00000  Uiso   1.00
N181   N     0.89046   0.62214   0.70073   0.00000  Uiso   1.00
N182   N     0.37746   0.10969   0.79924   0.00000  Uiso   1.00
N183   N     0.37803   0.62138   0.80109   0.00000  Uiso   1.00
N184   N     0.88918   0.62093   0.80330   0.00000  Uiso   1.00
C185   C     0.90231   0.45037   0.02294   0.00000  Uiso   1.00
C186   C     0.85542   0.49776   0.04995   0.00000  Uiso   1.00
C187   C     0.81597   0.53691   0.01553   0.00000  Uiso   1.00
C188   C     0.77651   0.57696   0.04898   0.00000  Uiso   1.00
C189   C     0.70374   0.65048   0.08095   0.00000  Uiso   1.00
C190   C     0.99630   0.49762   0.05046   0.00000  Uiso   1.00
C191   C     0.07528   0.53664   0.01647   0.00000  Uiso   1.00
C192   C     0.15442   0.57656   0.05035   0.00000  Uiso   1.00
C193   C     0.30035   0.64980   0.08312   0.00000  Uiso   1.00
C194   C     0.85529   0.35675   0.05107   0.00000  Uiso   1.00
C195   C     0.81573   0.27732   0.01759   0.00000  Uiso   1.00
C196   C     0.77616   0.19864   0.05199   0.00000  Uiso   1.00
C197   C     0.70315   0.05315   0.08570   0.00000  Uiso   1.00
C198   C     0.90240   0.45188   0.14357   0.00000  Uiso   1.00
C199   C     0.85548   0.49859   0.11547   0.00000  Uiso   1.00
C200   C     0.81607   0.53858   0.14898   0.00000  Uiso   1.00
C201   C     0.77656   0.57778   0.11461   0.00000  Uiso   1.00
C202   C     0.99635   0.49845   0.11598   0.00000  Uiso   1.00
C203   C     0.07538   0.53831   0.14992   0.00000  Uiso   1.00
C204   C     0.15447   0.57738   0.11599   0.00000  Uiso   1.00
C205   C     0.85533   0.35757   0.11659   0.00000  Uiso   1.00
C206   C     0.81583   0.27899   0.15105   0.00000  Uiso   1.00
C207   C     0.77621   0.19946   0.11762   0.00000  Uiso   1.00
H208   H     0.90228   0.44973   0.97193   0.00000  Uiso   1.00
H209   H     0.81595   0.53627   0.96482   0.00000  Uiso   1.00
H210   H     0.07522   0.53599   0.96576   0.00000  Uiso   1.00
H211   H     0.81570   0.27671   0.96689   0.00000  Uiso   1.00
H212   H     0.72029   0.63261   0.98583   0.00000  Uiso   1.00
H213   H     0.26698   0.63199   0.98782   0.00000  Uiso   1.00
H214   H     0.71974   0.08525   0.99019   0.00000  Uiso   1.00
H215   H     0.90244   0.45252   0.19458   0.00000  Uiso   1.00
H216   H     0.81612   0.53921   0.19969   0.00000  Uiso   1.00
H217   H     0.07540   0.53893   0.20062   0.00000  Uiso   1.00
H218   H     0.81588   0.27965   0.20175   0.00000  Uiso   1.00
H219   H     0.72043   0.63500   0.17646   0.00000  Uiso   1.00
H220   H     0.26712   0.63437   0.17844   0.00000  Uiso   1.00
H221   H     0.71988   0.08764   0.18081   0.00000  Uiso   1.00
O222   O     0.66360   0.69081   0.08049   0.00000  Uiso   1.00
O223   O     0.38083   0.68998   0.08309   0.00000  Uiso   1.00
O224   O     0.66286   0.97268   0.08620   0.00000  Uiso   1.00
N225   N     0.73215   0.62126   0.03000   0.00000  Uiso   1.00
N226   N     0.24328   0.62069   0.03185   0.00000  Uiso   1.00
N227   N     0.73167   0.10954   0.03406   0.00000  Uiso   1.00
N228   N     0.73223   0.62254   0.13257   0.00000  Uiso   1.00
N229   N     0.24335   0.62197   0.13442   0.00000  Uiso   1.00
N230   N     0.73175   0.11082   0.13664   0.00000  Uiso   1.00
C231   C     0.54806   0.09769   0.35628   0.00000  Uiso   1.00
C232   C     0.64234   0.14458   0.38329   0.00000  Uiso   1.00
C233   C     0.72095   0.18403   0.34886   0.00000  Uiso   1.00
C234   C     0.80045   0.22349   0.38231   0.00000  Uiso   1.00
C235   C     0.94674   0.29626   0.41429   0.00000  Uiso   1.00
C236   C     0.50133   0.00370   0.38380   0.00000  Uiso   1.00
C237   C     0.46136   0.92472   0.34980   0.00000  Uiso   1.00
C238   C     0.42215   0.84558   0.38368   0.00000  Uiso   1.00
C239   C     0.34945   0.69965   0.41645   0.00000  Uiso   1.00
C240   C     0.50147   0.14471   0.38441   0.00000  Uiso   1.00
C241   C     0.46159   0.18427   0.35092   0.00000  Uiso   1.00
C242   C     0.42248   0.22384   0.38532   0.00000  Uiso   1.00
C243   C     0.34999   0.29685   0.41903   0.00000  Uiso   1.00
C244   C     0.54947   0.09760   0.47690   0.00000  Uiso   1.00
C245   C     0.64311   0.14452   0.44881   0.00000  Uiso   1.00
C246   C     0.72252   0.18393   0.48232   0.00000  Uiso   1.00
C247   C     0.80123   0.22344   0.44795   0.00000  Uiso   1.00
C248   C     0.50210   0.00365   0.44931   0.00000  Uiso   1.00
C249   C     0.46293   0.92462   0.48326   0.00000  Uiso   1.00
C250   C     0.42292   0.84553   0.44932   0.00000  Uiso   1.00
C251   C     0.50224   0.14467   0.44993   0.00000  Uiso   1.00
C252   C     0.46317   0.18417   0.48438   0.00000  Uiso   1.00
C253   C     0.42325   0.22379   0.45096   0.00000  Uiso   1.00
H254   H     0.54745   0.09772   0.30527   0.00000  Uiso   1.00
H255   H     0.72032   0.18405   0.29816   0.00000  Uiso   1.00
H256   H     0.46077   0.92478   0.29910   0.00000  Uiso   1.00
H257   H     0.46101   0.18430   0.30022   0.00000  Uiso   1.00
H258   H     0.91232   0.27971   0.31917   0.00000  Uiso   1.00
H259   H     0.36501   0.73302   0.32115   0.00000  Uiso   1.00
H260   H     0.36551   0.28026   0.32352   0.00000  Uiso   1.00
H261   H     0.55007   0.09756   0.52791   0.00000  Uiso   1.00
H262   H     0.72309   0.18388   0.53302   0.00000  Uiso   1.00
H263   H     0.46353   0.92460   0.53396   0.00000  Uiso   1.00
H264   H     0.46378   0.18412   0.53508   0.00000  Uiso   1.00
H265   H     0.91457   0.27957   0.50979   0.00000  Uiso   1.00
H266   H     0.36725   0.73288   0.51177   0.00000  Uiso   1.00
H267   H     0.36776   0.28012   0.51414   0.00000  Uiso   1.00
O268   O     0.02721   0.33640   0.41382   0.00000  Uiso   1.00
O269   O     0.30914   0.61917   0.41642   0.00000  Uiso   1.00
O270   O     0.30981   0.33714   0.41953   0.00000  Uiso   1.00
N271   N     0.88911   0.26785   0.36333   0.00000  Uiso   1.00
N272   N     0.37741   0.75672   0.36518   0.00000  Uiso   1.00
N273   N     0.37786   0.26833   0.36740   0.00000  Uiso   1.00
N274   N     0.89031   0.26777   0.46590   0.00000  Uiso   1.00
N275   N     0.37862   0.75665   0.46775   0.00000  Uiso   1.00
N276   N     0.37907   0.26825   0.46997   0.00000  Uiso   1.00
