data_job_03570
_audit_creation_date              2018-12-19
_audit_creation_method            'Materials Studio'
_symmetry_space_group_name_H-M    'P1'
_symmetry_Int_Tables_number       1
_symmetry_cell_setting            triclinic
loop_
_symmetry_equiv_pos_as_xyz
  x,y,z
_cell_length_a                    24.7596
_cell_length_b                    12.1239
_cell_length_c                    33.6813
_cell_angle_alpha                 90.0000
_cell_angle_beta                  135.8804
_cell_angle_gamma                 90.0000
loop_
_atom_site_label
_atom_site_type_symbol
_atom_site_fract_x
_atom_site_fract_y
_atom_site_fract_z
_atom_site_U_iso_or_equiv
_atom_site_adp_type
_atom_site_occupancy
C1     C     0.09259   0.99552   0.70721   0.00000  Uiso   1.00
C2     C     0.00708   0.99430   0.65048   0.00000  Uiso   1.00
C3     C     0.95783   0.90399   0.62687   0.00000  Uiso   1.00
C4     C     0.88160   0.91970   0.57458   0.00000  Uiso   1.00
C5     C     0.75279   0.90222   0.49068   0.00000  Uiso   1.00
C6     C     0.13663   0.03434   0.69376   0.00000  Uiso   1.00
C7     C     0.19630   0.97770   0.70655   0.00000  Uiso   1.00
C8     C     0.22913   0.02712   0.69070   0.00000  Uiso   1.00
C9     C     0.30148   0.07183   0.67403   0.00000  Uiso   1.00
C10    C     0.10130   0.08708   0.74253   0.00000  Uiso   1.00
C11    C     0.13130   0.07481   0.79634   0.00000  Uiso   1.00
C12    C     0.13441   0.16864   0.82157   0.00000  Uiso   1.00
C13    C     0.15192   0.29525   0.88062   0.00000  Uiso   1.00
C14    C     0.04479   0.18400   0.65633   0.00000  Uiso   1.00
C15    C     0.98112   0.09668   0.62284   0.00000  Uiso   1.00
C16    C     0.90495   0.11252   0.57057   0.00000  Uiso   1.00
C17    C     0.85559   0.02226   0.54689   0.00000  Uiso   1.00
C18    C     0.11067   0.13671   0.66612   0.00000  Uiso   1.00
C19    C     0.14342   0.18623   0.65025   0.00000  Uiso   1.00
C20    C     0.20313   0.12967   0.66301   0.00000  Uiso   1.00
C21    C     0.07534   0.18946   0.71489   0.00000  Uiso   1.00
C22    C     0.07842   0.28334   0.74004   0.00000  Uiso   1.00
C23    C     0.10841   0.27120   0.79387   0.00000  Uiso   1.00
H24    H     0.11280   0.91582   0.72873   0.00000  Uiso   1.00
H25    H     0.97794   0.82478   0.64828   0.00000  Uiso   1.00
H26    H     0.21638   0.89848   0.72795   0.00000  Uiso   1.00
H27    H     0.15138   0.99557   0.81772   0.00000  Uiso   1.00
H28    H     0.81698   0.76898   0.54687   0.00000  Uiso   1.00
H29    H     0.31977   0.92440   0.71488   0.00000  Uiso   1.00
H30    H     0.18271   0.12914   0.90419   0.00000  Uiso   1.00
H31    H     0.02459   0.26371   0.63481   0.00000  Uiso   1.00
H32    H     0.88488   0.19176   0.54919   0.00000  Uiso   1.00
H33    H     0.12332   0.26545   0.62886   0.00000  Uiso   1.00
H34    H     0.05833   0.36254   0.71864   0.00000  Uiso   1.00
H35    H     0.74145   0.06683   0.46645   0.00000  Uiso   1.00
H36    H     0.24424   0.22225   0.63447   0.00000  Uiso   1.00
H37    H     0.10718   0.42699   0.82377   0.00000  Uiso   1.00
O38    O     0.68891   0.86429   0.45203   0.00000  Uiso   1.00
O39    O     0.34856   0.06820   0.67246   0.00000  Uiso   1.00
O40    O     0.16874   0.33681   0.92082   0.00000  Uiso   1.00
N41    N     0.81837   0.84896   0.53970   0.00000  Uiso   1.00
N42    N     0.28844   0.99426   0.69677   0.00000  Uiso   1.00
N43    N     0.16032   0.18568   0.87376   0.00000  Uiso   1.00
N44    N     0.77773   0.00923   0.49643   0.00000  Uiso   1.00
N45    N     0.24780   0.15453   0.65350   0.00000  Uiso   1.00
N46    N     0.11968   0.34595   0.83049   0.00000  Uiso   1.00
C47    C     0.59259   0.49552   0.70721   0.00000  Uiso   1.00
C48    C     0.50708   0.49430   0.65048   0.00000  Uiso   1.00
C49    C     0.45783   0.40399   0.62687   0.00000  Uiso   1.00
C50    C     0.38160   0.41970   0.57458   0.00000  Uiso   1.00
C51    C     0.25279   0.40222   0.49068   0.00000  Uiso   1.00
C52    C     0.63663   0.53434   0.69376   0.00000  Uiso   1.00
C53    C     0.69630   0.47770   0.70655   0.00000  Uiso   1.00
C54    C     0.72913   0.52712   0.69070   0.00000  Uiso   1.00
C55    C     0.80148   0.57183   0.67403   0.00000  Uiso   1.00
C56    C     0.60130   0.58708   0.74253   0.00000  Uiso   1.00
C57    C     0.63130   0.57481   0.79634   0.00000  Uiso   1.00
C58    C     0.63441   0.66864   0.82157   0.00000  Uiso   1.00
C59    C     0.65192   0.79525   0.88062   0.00000  Uiso   1.00
C60    C     0.54479   0.68400   0.65633   0.00000  Uiso   1.00
C61    C     0.48112   0.59668   0.62284   0.00000  Uiso   1.00
C62    C     0.40495   0.61252   0.57057   0.00000  Uiso   1.00
C63    C     0.35559   0.52226   0.54689   0.00000  Uiso   1.00
C64    C     0.61067   0.63671   0.66612   0.00000  Uiso   1.00
C65    C     0.64342   0.68623   0.65025   0.00000  Uiso   1.00
C66    C     0.70313   0.62967   0.66301   0.00000  Uiso   1.00
C67    C     0.57534   0.68946   0.71489   0.00000  Uiso   1.00
C68    C     0.57842   0.78334   0.74004   0.00000  Uiso   1.00
C69    C     0.60841   0.77120   0.79387   0.00000  Uiso   1.00
H70    H     0.61280   0.41582   0.72873   0.00000  Uiso   1.00
H71    H     0.47794   0.32478   0.64828   0.00000  Uiso   1.00
H72    H     0.71638   0.39848   0.72795   0.00000  Uiso   1.00
H73    H     0.65138   0.49557   0.81772   0.00000  Uiso   1.00
H74    H     0.31698   0.26898   0.54687   0.00000  Uiso   1.00
H75    H     0.81977   0.42440   0.71488   0.00000  Uiso   1.00
H76    H     0.68271   0.62914   0.90419   0.00000  Uiso   1.00
H77    H     0.52459   0.76371   0.63481   0.00000  Uiso   1.00
H78    H     0.38488   0.69176   0.54919   0.00000  Uiso   1.00
H79    H     0.62332   0.76545   0.62886   0.00000  Uiso   1.00
H80    H     0.55833   0.86254   0.71864   0.00000  Uiso   1.00
H81    H     0.24145   0.56683   0.46645   0.00000  Uiso   1.00
H82    H     0.74424   0.72225   0.63447   0.00000  Uiso   1.00
H83    H     0.60718   0.92699   0.82377   0.00000  Uiso   1.00
O84    O     0.18891   0.36429   0.45203   0.00000  Uiso   1.00
O85    O     0.84856   0.56820   0.67246   0.00000  Uiso   1.00
O86    O     0.66874   0.83681   0.92082   0.00000  Uiso   1.00
N87    N     0.31837   0.34896   0.53970   0.00000  Uiso   1.00
N88    N     0.78844   0.49426   0.69677   0.00000  Uiso   1.00
N89    N     0.66032   0.68568   0.87376   0.00000  Uiso   1.00
N90    N     0.27773   0.50923   0.49643   0.00000  Uiso   1.00
N91    N     0.74780   0.65453   0.65350   0.00000  Uiso   1.00
N92    N     0.61968   0.84595   0.83049   0.00000  Uiso   1.00
C93    C     0.90741   0.99552   0.79279   0.00000  Uiso   1.00
C94    C     0.99292   0.99430   0.84952   0.00000  Uiso   1.00
C95    C     0.04217   0.90399   0.87313   0.00000  Uiso   1.00
C96    C     0.11840   0.91970   0.92542   0.00000  Uiso   1.00
C97    C     0.24721   0.90222   0.00932   0.00000  Uiso   1.00
C98    C     0.86337   0.03434   0.80624   0.00000  Uiso   1.00
C99    C     0.80370   0.97770   0.79345   0.00000  Uiso   1.00
C100   C     0.77087   0.02712   0.80930   0.00000  Uiso   1.00
C101   C     0.69852   0.07183   0.82597   0.00000  Uiso   1.00
C102   C     0.89870   0.08708   0.75747   0.00000  Uiso   1.00
C103   C     0.86870   0.07481   0.70366   0.00000  Uiso   1.00
C104   C     0.86559   0.16864   0.67843   0.00000  Uiso   1.00
C105   C     0.84808   0.29525   0.61938   0.00000  Uiso   1.00
C106   C     0.95521   0.18400   0.84367   0.00000  Uiso   1.00
C107   C     0.01888   0.09668   0.87716   0.00000  Uiso   1.00
C108   C     0.09505   0.11252   0.92943   0.00000  Uiso   1.00
C109   C     0.14441   0.02226   0.95311   0.00000  Uiso   1.00
C110   C     0.88933   0.13671   0.83388   0.00000  Uiso   1.00
C111   C     0.85658   0.18623   0.84975   0.00000  Uiso   1.00
C112   C     0.79687   0.12967   0.83699   0.00000  Uiso   1.00
C113   C     0.92466   0.18946   0.78511   0.00000  Uiso   1.00
C114   C     0.92158   0.28334   0.75996   0.00000  Uiso   1.00
C115   C     0.89159   0.27120   0.70613   0.00000  Uiso   1.00
H116   H     0.88720   0.91582   0.77127   0.00000  Uiso   1.00
H117   H     0.02206   0.82478   0.85172   0.00000  Uiso   1.00
H118   H     0.78362   0.89848   0.77205   0.00000  Uiso   1.00
H119   H     0.84862   0.99557   0.68228   0.00000  Uiso   1.00
H120   H     0.18302   0.76898   0.95313   0.00000  Uiso   1.00
H121   H     0.68023   0.92440   0.78512   0.00000  Uiso   1.00
H122   H     0.81729   0.12914   0.59581   0.00000  Uiso   1.00
H123   H     0.97541   0.26371   0.86519   0.00000  Uiso   1.00
H124   H     0.11512   0.19176   0.95081   0.00000  Uiso   1.00
H125   H     0.87668   0.26545   0.87114   0.00000  Uiso   1.00
H126   H     0.94167   0.36254   0.78136   0.00000  Uiso   1.00
H127   H     0.25855   0.06683   0.03355   0.00000  Uiso   1.00
H128   H     0.75576   0.22225   0.86553   0.00000  Uiso   1.00
H129   H     0.89282   0.42699   0.67623   0.00000  Uiso   1.00
O130   O     0.31109   0.86429   0.04797   0.00000  Uiso   1.00
O131   O     0.65144   0.06820   0.82754   0.00000  Uiso   1.00
O132   O     0.83126   0.33681   0.57918   0.00000  Uiso   1.00
N133   N     0.18163   0.84896   0.96030   0.00000  Uiso   1.00
N134   N     0.71156   0.99426   0.80323   0.00000  Uiso   1.00
N135   N     0.83968   0.18568   0.62624   0.00000  Uiso   1.00
N136   N     0.22227   0.00923   0.00357   0.00000  Uiso   1.00
N137   N     0.75220   0.15453   0.84650   0.00000  Uiso   1.00
N138   N     0.88032   0.34595   0.66951   0.00000  Uiso   1.00
C139   C     0.40741   0.49552   0.79279   0.00000  Uiso   1.00
C140   C     0.49292   0.49430   0.84952   0.00000  Uiso   1.00
C141   C     0.54217   0.40399   0.87313   0.00000  Uiso   1.00
C142   C     0.61840   0.41970   0.92542   0.00000  Uiso   1.00
C143   C     0.74721   0.40222   0.00932   0.00000  Uiso   1.00
C144   C     0.36337   0.53434   0.80624   0.00000  Uiso   1.00
C145   C     0.30370   0.47770   0.79345   0.00000  Uiso   1.00
C146   C     0.27087   0.52712   0.80930   0.00000  Uiso   1.00
C147   C     0.19852   0.57183   0.82597   0.00000  Uiso   1.00
C148   C     0.39870   0.58708   0.75747   0.00000  Uiso   1.00
C149   C     0.36870   0.57481   0.70366   0.00000  Uiso   1.00
C150   C     0.36559   0.66864   0.67843   0.00000  Uiso   1.00
C151   C     0.34808   0.79525   0.61938   0.00000  Uiso   1.00
C152   C     0.45521   0.68400   0.84367   0.00000  Uiso   1.00
C153   C     0.51888   0.59668   0.87716   0.00000  Uiso   1.00
C154   C     0.59505   0.61252   0.92943   0.00000  Uiso   1.00
C155   C     0.64441   0.52226   0.95311   0.00000  Uiso   1.00
C156   C     0.38933   0.63671   0.83388   0.00000  Uiso   1.00
C157   C     0.35658   0.68623   0.84975   0.00000  Uiso   1.00
C158   C     0.29687   0.62967   0.83699   0.00000  Uiso   1.00
C159   C     0.42466   0.68946   0.78511   0.00000  Uiso   1.00
C160   C     0.42158   0.78334   0.75996   0.00000  Uiso   1.00
C161   C     0.39159   0.77120   0.70613   0.00000  Uiso   1.00
H162   H     0.38720   0.41582   0.77127   0.00000  Uiso   1.00
H163   H     0.52206   0.32478   0.85172   0.00000  Uiso   1.00
H164   H     0.28362   0.39848   0.77205   0.00000  Uiso   1.00
H165   H     0.34862   0.49557   0.68228   0.00000  Uiso   1.00
H166   H     0.68302   0.26898   0.95313   0.00000  Uiso   1.00
H167   H     0.18023   0.42440   0.78512   0.00000  Uiso   1.00
H168   H     0.31729   0.62914   0.59581   0.00000  Uiso   1.00
H169   H     0.47541   0.76371   0.86519   0.00000  Uiso   1.00
H170   H     0.61512   0.69176   0.95081   0.00000  Uiso   1.00
H171   H     0.37668   0.76545   0.87114   0.00000  Uiso   1.00
H172   H     0.44167   0.86254   0.78136   0.00000  Uiso   1.00
H173   H     0.75855   0.56683   0.03355   0.00000  Uiso   1.00
H174   H     0.25576   0.72225   0.86553   0.00000  Uiso   1.00
H175   H     0.39282   0.92699   0.67623   0.00000  Uiso   1.00
O176   O     0.81109   0.36429   0.04797   0.00000  Uiso   1.00
O177   O     0.15144   0.56820   0.82754   0.00000  Uiso   1.00
O178   O     0.33126   0.83681   0.57918   0.00000  Uiso   1.00
N179   N     0.68163   0.34896   0.96030   0.00000  Uiso   1.00
N180   N     0.21156   0.49426   0.80323   0.00000  Uiso   1.00
N181   N     0.33968   0.68568   0.62624   0.00000  Uiso   1.00
N182   N     0.72227   0.50923   0.00357   0.00000  Uiso   1.00
N183   N     0.25220   0.65453   0.84650   0.00000  Uiso   1.00
N184   N     0.38032   0.84595   0.66951   0.00000  Uiso   1.00
C185   C     0.90741   0.00448   0.29279   0.00000  Uiso   1.00
C186   C     0.99292   0.00570   0.34952   0.00000  Uiso   1.00
C187   C     0.04217   0.09601   0.37313   0.00000  Uiso   1.00
C188   C     0.11840   0.08030   0.42542   0.00000  Uiso   1.00
C189   C     0.24721   0.09778   0.50932   0.00000  Uiso   1.00
C190   C     0.86337   0.96566   0.30624   0.00000  Uiso   1.00
C191   C     0.80370   0.02230   0.29345   0.00000  Uiso   1.00
C192   C     0.77087   0.97288   0.30930   0.00000  Uiso   1.00
C193   C     0.69852   0.92817   0.32597   0.00000  Uiso   1.00
C194   C     0.89870   0.91292   0.25747   0.00000  Uiso   1.00
C195   C     0.86870   0.92519   0.20366   0.00000  Uiso   1.00
C196   C     0.86559   0.83136   0.17843   0.00000  Uiso   1.00
C197   C     0.84808   0.70475   0.11938   0.00000  Uiso   1.00
C198   C     0.95521   0.81600   0.34367   0.00000  Uiso   1.00
C199   C     0.01888   0.90332   0.37716   0.00000  Uiso   1.00
C200   C     0.09505   0.88748   0.42943   0.00000  Uiso   1.00
C201   C     0.14441   0.97774   0.45311   0.00000  Uiso   1.00
C202   C     0.88933   0.86329   0.33388   0.00000  Uiso   1.00
C203   C     0.85658   0.81377   0.34975   0.00000  Uiso   1.00
C204   C     0.79687   0.87033   0.33699   0.00000  Uiso   1.00
C205   C     0.92466   0.81054   0.28511   0.00000  Uiso   1.00
C206   C     0.92158   0.71666   0.25996   0.00000  Uiso   1.00
C207   C     0.89159   0.72880   0.20613   0.00000  Uiso   1.00
H208   H     0.88720   0.08418   0.27127   0.00000  Uiso   1.00
H209   H     0.02206   0.17522   0.35172   0.00000  Uiso   1.00
H210   H     0.78362   0.10152   0.27205   0.00000  Uiso   1.00
H211   H     0.84862   0.00443   0.18228   0.00000  Uiso   1.00
H212   H     0.18302   0.23102   0.45313   0.00000  Uiso   1.00
H213   H     0.68023   0.07560   0.28512   0.00000  Uiso   1.00
H214   H     0.81729   0.87086   0.09581   0.00000  Uiso   1.00
H215   H     0.97541   0.73629   0.36519   0.00000  Uiso   1.00
H216   H     0.11512   0.80824   0.45081   0.00000  Uiso   1.00
H217   H     0.87668   0.73455   0.37114   0.00000  Uiso   1.00
H218   H     0.94167   0.63746   0.28136   0.00000  Uiso   1.00
H219   H     0.25855   0.93317   0.53355   0.00000  Uiso   1.00
H220   H     0.75576   0.77775   0.36553   0.00000  Uiso   1.00
H221   H     0.89282   0.57301   0.17623   0.00000  Uiso   1.00
O222   O     0.31109   0.13571   0.54797   0.00000  Uiso   1.00
O223   O     0.65144   0.93180   0.32754   0.00000  Uiso   1.00
O224   O     0.83126   0.66319   0.07918   0.00000  Uiso   1.00
N225   N     0.18163   0.15104   0.46030   0.00000  Uiso   1.00
N226   N     0.71156   0.00574   0.30323   0.00000  Uiso   1.00
N227   N     0.83968   0.81432   0.12624   0.00000  Uiso   1.00
N228   N     0.22227   0.99077   0.50357   0.00000  Uiso   1.00
N229   N     0.75220   0.84547   0.34650   0.00000  Uiso   1.00
N230   N     0.88032   0.65405   0.16951   0.00000  Uiso   1.00
C231   C     0.40741   0.50448   0.29279   0.00000  Uiso   1.00
C232   C     0.49292   0.50570   0.34952   0.00000  Uiso   1.00
C233   C     0.54217   0.59601   0.37313   0.00000  Uiso   1.00
C234   C     0.61840   0.58030   0.42542   0.00000  Uiso   1.00
C235   C     0.74721   0.59778   0.50932   0.00000  Uiso   1.00
C236   C     0.36337   0.46566   0.30624   0.00000  Uiso   1.00
C237   C     0.30370   0.52230   0.29345   0.00000  Uiso   1.00
C238   C     0.27087   0.47288   0.30930   0.00000  Uiso   1.00
C239   C     0.19852   0.42817   0.32597   0.00000  Uiso   1.00
C240   C     0.39870   0.41292   0.25747   0.00000  Uiso   1.00
C241   C     0.36870   0.42519   0.20366   0.00000  Uiso   1.00
C242   C     0.36559   0.33136   0.17843   0.00000  Uiso   1.00
C243   C     0.34808   0.20475   0.11938   0.00000  Uiso   1.00
C244   C     0.45521   0.31600   0.34367   0.00000  Uiso   1.00
C245   C     0.51888   0.40332   0.37716   0.00000  Uiso   1.00
C246   C     0.59505   0.38748   0.42943   0.00000  Uiso   1.00
C247   C     0.64441   0.47774   0.45311   0.00000  Uiso   1.00
C248   C     0.38933   0.36329   0.33388   0.00000  Uiso   1.00
C249   C     0.35658   0.31377   0.34975   0.00000  Uiso   1.00
C250   C     0.29687   0.37033   0.33699   0.00000  Uiso   1.00
C251   C     0.42466   0.31054   0.28511   0.00000  Uiso   1.00
C252   C     0.42158   0.21666   0.25996   0.00000  Uiso   1.00
C253   C     0.39159   0.22880   0.20613   0.00000  Uiso   1.00
H254   H     0.38720   0.58418   0.27127   0.00000  Uiso   1.00
H255   H     0.52206   0.67522   0.35172   0.00000  Uiso   1.00
H256   H     0.28362   0.60152   0.27205   0.00000  Uiso   1.00
H257   H     0.34862   0.50443   0.18228   0.00000  Uiso   1.00
H258   H     0.68302   0.73102   0.45313   0.00000  Uiso   1.00
H259   H     0.18023   0.57560   0.28512   0.00000  Uiso   1.00
H260   H     0.31729   0.37086   0.09581   0.00000  Uiso   1.00
H261   H     0.47541   0.23629   0.36519   0.00000  Uiso   1.00
H262   H     0.61512   0.30824   0.45081   0.00000  Uiso   1.00
H263   H     0.37668   0.23455   0.37114   0.00000  Uiso   1.00
H264   H     0.44167   0.13746   0.28136   0.00000  Uiso   1.00
H265   H     0.75855   0.43317   0.53355   0.00000  Uiso   1.00
H266   H     0.25576   0.27775   0.36553   0.00000  Uiso   1.00
H267   H     0.39282   0.07301   0.17623   0.00000  Uiso   1.00
O268   O     0.81109   0.63571   0.54797   0.00000  Uiso   1.00
O269   O     0.15144   0.43180   0.32754   0.00000  Uiso   1.00
O270   O     0.33126   0.16319   0.07918   0.00000  Uiso   1.00
N271   N     0.68163   0.65104   0.46030   0.00000  Uiso   1.00
N272   N     0.21156   0.50574   0.30323   0.00000  Uiso   1.00
N273   N     0.33968   0.31432   0.12624   0.00000  Uiso   1.00
N274   N     0.72227   0.49077   0.50357   0.00000  Uiso   1.00
N275   N     0.25220   0.34547   0.34650   0.00000  Uiso   1.00
N276   N     0.38032   0.15405   0.16951   0.00000  Uiso   1.00
C277   C     0.09259   0.00448   0.20721   0.00000  Uiso   1.00
C278   C     0.00708   0.00570   0.15048   0.00000  Uiso   1.00
C279   C     0.95783   0.09601   0.12687   0.00000  Uiso   1.00
C280   C     0.88160   0.08030   0.07458   0.00000  Uiso   1.00
C281   C     0.75279   0.09778   0.99068   0.00000  Uiso   1.00
C282   C     0.13663   0.96566   0.19376   0.00000  Uiso   1.00
C283   C     0.19630   0.02230   0.20655   0.00000  Uiso   1.00
C284   C     0.22913   0.97288   0.19070   0.00000  Uiso   1.00
C285   C     0.30148   0.92817   0.17403   0.00000  Uiso   1.00
C286   C     0.10130   0.91292   0.24253   0.00000  Uiso   1.00
C287   C     0.13130   0.92519   0.29634   0.00000  Uiso   1.00
C288   C     0.13441   0.83136   0.32157   0.00000  Uiso   1.00
C289   C     0.15192   0.70475   0.38062   0.00000  Uiso   1.00
C290   C     0.04479   0.81600   0.15633   0.00000  Uiso   1.00
C291   C     0.98112   0.90332   0.12284   0.00000  Uiso   1.00
C292   C     0.90495   0.88748   0.07057   0.00000  Uiso   1.00
C293   C     0.85559   0.97774   0.04689   0.00000  Uiso   1.00
C294   C     0.11067   0.86329   0.16612   0.00000  Uiso   1.00
C295   C     0.14342   0.81377   0.15025   0.00000  Uiso   1.00
C296   C     0.20313   0.87033   0.16301   0.00000  Uiso   1.00
C297   C     0.07534   0.81054   0.21489   0.00000  Uiso   1.00
C298   C     0.07842   0.71666   0.24004   0.00000  Uiso   1.00
C299   C     0.10841   0.72880   0.29387   0.00000  Uiso   1.00
H300   H     0.11280   0.08418   0.22873   0.00000  Uiso   1.00
H301   H     0.97794   0.17522   0.14828   0.00000  Uiso   1.00
H302   H     0.21638   0.10152   0.22795   0.00000  Uiso   1.00
H303   H     0.15138   0.00443   0.31772   0.00000  Uiso   1.00
H304   H     0.81698   0.23102   0.04687   0.00000  Uiso   1.00
H305   H     0.31977   0.07560   0.21488   0.00000  Uiso   1.00
H306   H     0.18271   0.87086   0.40419   0.00000  Uiso   1.00
H307   H     0.02459   0.73629   0.13481   0.00000  Uiso   1.00
H308   H     0.88488   0.80824   0.04919   0.00000  Uiso   1.00
H309   H     0.12332   0.73455   0.12886   0.00000  Uiso   1.00
H310   H     0.05833   0.63746   0.21864   0.00000  Uiso   1.00
H311   H     0.74145   0.93317   0.96645   0.00000  Uiso   1.00
H312   H     0.24424   0.77775   0.13447   0.00000  Uiso   1.00
H313   H     0.10718   0.57301   0.32377   0.00000  Uiso   1.00
O314   O     0.68891   0.13571   0.95203   0.00000  Uiso   1.00
O315   O     0.34856   0.93180   0.17246   0.00000  Uiso   1.00
O316   O     0.16874   0.66319   0.42082   0.00000  Uiso   1.00
N317   N     0.81837   0.15104   0.03970   0.00000  Uiso   1.00
N318   N     0.28844   0.00574   0.19677   0.00000  Uiso   1.00
N319   N     0.16032   0.81432   0.37376   0.00000  Uiso   1.00
N320   N     0.77773   0.99077   0.99643   0.00000  Uiso   1.00
N321   N     0.24780   0.84547   0.15350   0.00000  Uiso   1.00
N322   N     0.11968   0.65405   0.33049   0.00000  Uiso   1.00
C323   C     0.59259   0.50448   0.20721   0.00000  Uiso   1.00
C324   C     0.50708   0.50570   0.15048   0.00000  Uiso   1.00
C325   C     0.45783   0.59601   0.12687   0.00000  Uiso   1.00
C326   C     0.38160   0.58030   0.07458   0.00000  Uiso   1.00
C327   C     0.25279   0.59778   0.99068   0.00000  Uiso   1.00
C328   C     0.63663   0.46566   0.19376   0.00000  Uiso   1.00
C329   C     0.69630   0.52230   0.20655   0.00000  Uiso   1.00
C330   C     0.72913   0.47288   0.19070   0.00000  Uiso   1.00
C331   C     0.80148   0.42817   0.17403   0.00000  Uiso   1.00
C332   C     0.60130   0.41292   0.24253   0.00000  Uiso   1.00
C333   C     0.63130   0.42519   0.29634   0.00000  Uiso   1.00
C334   C     0.63441   0.33136   0.32157   0.00000  Uiso   1.00
C335   C     0.65192   0.20475   0.38062   0.00000  Uiso   1.00
C336   C     0.54479   0.31600   0.15633   0.00000  Uiso   1.00
C337   C     0.48112   0.40332   0.12284   0.00000  Uiso   1.00
C338   C     0.40495   0.38748   0.07057   0.00000  Uiso   1.00
C339   C     0.35559   0.47774   0.04689   0.00000  Uiso   1.00
C340   C     0.61067   0.36329   0.16612   0.00000  Uiso   1.00
C341   C     0.64342   0.31377   0.15025   0.00000  Uiso   1.00
C342   C     0.70313   0.37033   0.16301   0.00000  Uiso   1.00
C343   C     0.57534   0.31054   0.21489   0.00000  Uiso   1.00
C344   C     0.57842   0.21666   0.24004   0.00000  Uiso   1.00
C345   C     0.60841   0.22880   0.29387   0.00000  Uiso   1.00
H346   H     0.61280   0.58418   0.22873   0.00000  Uiso   1.00
H347   H     0.47794   0.67522   0.14828   0.00000  Uiso   1.00
H348   H     0.71638   0.60152   0.22795   0.00000  Uiso   1.00
H349   H     0.65138   0.50443   0.31772   0.00000  Uiso   1.00
H350   H     0.31698   0.73102   0.04687   0.00000  Uiso   1.00
H351   H     0.81977   0.57560   0.21488   0.00000  Uiso   1.00
H352   H     0.68271   0.37086   0.40419   0.00000  Uiso   1.00
H353   H     0.52459   0.23629   0.13481   0.00000  Uiso   1.00
H354   H     0.38488   0.30824   0.04919   0.00000  Uiso   1.00
H355   H     0.62332   0.23455   0.12886   0.00000  Uiso   1.00
H356   H     0.55833   0.13746   0.21864   0.00000  Uiso   1.00
H357   H     0.24145   0.43317   0.96645   0.00000  Uiso   1.00
H358   H     0.74424   0.27775   0.13447   0.00000  Uiso   1.00
H359   H     0.60718   0.07301   0.32377   0.00000  Uiso   1.00
O360   O     0.18891   0.63571   0.95203   0.00000  Uiso   1.00
O361   O     0.84856   0.43180   0.17246   0.00000  Uiso   1.00
O362   O     0.66874   0.16319   0.42082   0.00000  Uiso   1.00
N363   N     0.31837   0.65104   0.03970   0.00000  Uiso   1.00
N364   N     0.78844   0.50574   0.19677   0.00000  Uiso   1.00
N365   N     0.66032   0.31432   0.37376   0.00000  Uiso   1.00
N366   N     0.27773   0.49077   0.99643   0.00000  Uiso   1.00
N367   N     0.74780   0.34547   0.15350   0.00000  Uiso   1.00
N368   N     0.61968   0.15405   0.33049   0.00000  Uiso   1.00
