data_job_04125
_audit_creation_date              2018-12-19
_audit_creation_method            'Materials Studio'
_symmetry_space_group_name_H-M    'P1'
_symmetry_Int_Tables_number       1
_symmetry_cell_setting            triclinic
loop_
_symmetry_equiv_pos_as_xyz
  x,y,z
_cell_length_a                    15.7602
_cell_length_b                    11.4130
_cell_length_c                    14.7636
_cell_angle_alpha                 90.0000
_cell_angle_beta                  112.1361
_cell_angle_gamma                 90.0000
loop_
_atom_site_label
_atom_site_type_symbol
_atom_site_fract_x
_atom_site_fract_y
_atom_site_fract_z
_atom_site_U_iso_or_equiv
_atom_site_adp_type
_atom_site_occupancy
C1     C     0.23719   0.26325   0.40877   0.00000  Uiso   1.00
C2     C     0.21383   0.13469   0.38330   0.00000  Uiso   1.00
C3     C     0.15596   0.06698   0.41314   0.00000  Uiso   1.00
C4     C     0.14347   0.95118   0.38210   0.00000  Uiso   1.00
C5     C     0.10055   0.75859   0.35153   0.00000  Uiso   1.00
C6     C     0.34133   0.26923   0.45738   0.00000  Uiso   1.00
C7     C     0.39065   0.31466   0.54951   0.00000  Uiso   1.00
C8     C     0.48549   0.31212   0.58082   0.00000  Uiso   1.00
C9     C     0.64051   0.32848   0.66524   0.00000  Uiso   1.00
C10    C     0.21175   0.32740   0.31149   0.00000  Uiso   1.00
C11    C     0.15215   0.42175   0.28096   0.00000  Uiso   1.00
C12    C     0.13791   0.46820   0.18946   0.00000  Uiso   1.00
C13    C     0.09176   0.57488   0.04737   0.00000  Uiso   1.00
C14    C     0.31791   0.17799   0.30058   0.00000  Uiso   1.00
C15    C     0.25767   0.08839   0.32453   0.00000  Uiso   1.00
C16    C     0.24526   0.97265   0.29344   0.00000  Uiso   1.00
C17    C     0.18738   0.90478   0.32323   0.00000  Uiso   1.00
C18    C     0.38517   0.22293   0.39862   0.00000  Uiso   1.00
C19    C     0.47995   0.22033   0.42980   0.00000  Uiso   1.00
C20    C     0.52941   0.26573   0.52195   0.00000  Uiso   1.00
C21    C     0.25559   0.28109   0.25273   0.00000  Uiso   1.00
C22    C     0.24145   0.32741   0.16126   0.00000  Uiso   1.00
C23    C     0.18184   0.42181   0.13059   0.00000  Uiso   1.00
H24    H     0.20307   0.29930   0.45452   0.00000  Uiso   1.00
H25    H     0.12205   0.10285   0.45863   0.00000  Uiso   1.00
H26    H     0.35670   0.35050   0.59496   0.00000  Uiso   1.00
H27    H     0.11824   0.45756   0.32646   0.00000  Uiso   1.00
H28    H     0.05159   0.86461   0.43729   0.00000  Uiso   1.00
H29    H     0.54637   0.38682   0.72475   0.00000  Uiso   1.00
H30    H     0.04352   0.61260   0.15856   0.00000  Uiso   1.00
H31    H     0.35205   0.14194   0.25483   0.00000  Uiso   1.00
H32    H     0.27920   0.93684   0.24796   0.00000  Uiso   1.00
H33    H     0.51386   0.18449   0.38431   0.00000  Uiso   1.00
H34    H     0.27539   0.29156   0.11580   0.00000  Uiso   1.00
H35    H     0.17914   0.72987   0.26631   0.00000  Uiso   1.00
H36    H     0.67392   0.25209   0.55377   0.00000  Uiso   1.00
H37    H     0.17107   0.47786   0.98758   0.00000  Uiso   1.00
O38    O     0.06478   0.66515   0.35092   0.00000  Uiso   1.00
O39    O     0.71391   0.35029   0.72804   0.00000  Uiso   1.00
O40    O     0.05418   0.64650   0.98522   0.00000  Uiso   1.00
N41    N     0.09159   0.86105   0.39797   0.00000  Uiso   1.00
N42    N     0.55418   0.34927   0.66674   0.00000  Uiso   1.00
N43    N     0.08407   0.56037   0.13741   0.00000  Uiso   1.00
N44    N     0.16022   0.78855   0.30597   0.00000  Uiso   1.00
N45    N     0.62281   0.27677   0.57474   0.00000  Uiso   1.00
N46    N     0.15271   0.48787   0.04541   0.00000  Uiso   1.00
C47    C     0.76281   0.26325   0.09123   0.00000  Uiso   1.00
C48    C     0.78617   0.13469   0.11670   0.00000  Uiso   1.00
C49    C     0.84404   0.06698   0.08686   0.00000  Uiso   1.00
C50    C     0.85653   0.95118   0.11790   0.00000  Uiso   1.00
C51    C     0.89945   0.75859   0.14847   0.00000  Uiso   1.00
C52    C     0.65867   0.26923   0.04262   0.00000  Uiso   1.00
C53    C     0.60935   0.31466   0.95049   0.00000  Uiso   1.00
C54    C     0.51451   0.31212   0.91918   0.00000  Uiso   1.00
C55    C     0.35949   0.32848   0.83476   0.00000  Uiso   1.00
C56    C     0.78825   0.32740   0.18851   0.00000  Uiso   1.00
C57    C     0.84785   0.42175   0.21904   0.00000  Uiso   1.00
C58    C     0.86209   0.46820   0.31054   0.00000  Uiso   1.00
C59    C     0.90824   0.57488   0.45263   0.00000  Uiso   1.00
C60    C     0.68209   0.17799   0.19942   0.00000  Uiso   1.00
C61    C     0.74233   0.08839   0.17547   0.00000  Uiso   1.00
C62    C     0.75474   0.97265   0.20656   0.00000  Uiso   1.00
C63    C     0.81262   0.90478   0.17677   0.00000  Uiso   1.00
C64    C     0.61483   0.22293   0.10138   0.00000  Uiso   1.00
C65    C     0.52005   0.22033   0.07020   0.00000  Uiso   1.00
C66    C     0.47059   0.26573   0.97805   0.00000  Uiso   1.00
C67    C     0.74441   0.28109   0.24727   0.00000  Uiso   1.00
C68    C     0.75855   0.32741   0.33874   0.00000  Uiso   1.00
C69    C     0.81816   0.42181   0.36941   0.00000  Uiso   1.00
H70    H     0.79693   0.29930   0.04548   0.00000  Uiso   1.00
H71    H     0.87795   0.10285   0.04137   0.00000  Uiso   1.00
H72    H     0.64330   0.35050   0.90504   0.00000  Uiso   1.00
H73    H     0.88176   0.45756   0.17354   0.00000  Uiso   1.00
H74    H     0.94841   0.86461   0.06271   0.00000  Uiso   1.00
H75    H     0.45363   0.38682   0.77525   0.00000  Uiso   1.00
H76    H     0.95648   0.61260   0.34144   0.00000  Uiso   1.00
H77    H     0.64795   0.14194   0.24517   0.00000  Uiso   1.00
H78    H     0.72080   0.93684   0.25204   0.00000  Uiso   1.00
H79    H     0.48614   0.18449   0.11569   0.00000  Uiso   1.00
H80    H     0.72461   0.29156   0.38420   0.00000  Uiso   1.00
H81    H     0.82086   0.72987   0.23369   0.00000  Uiso   1.00
H82    H     0.32608   0.25209   0.94623   0.00000  Uiso   1.00
H83    H     0.82893   0.47786   0.51242   0.00000  Uiso   1.00
O84    O     0.93522   0.66515   0.14908   0.00000  Uiso   1.00
O85    O     0.28609   0.35029   0.77196   0.00000  Uiso   1.00
O86    O     0.94582   0.64650   0.51478   0.00000  Uiso   1.00
N87    N     0.90841   0.86105   0.10203   0.00000  Uiso   1.00
N88    N     0.44582   0.34927   0.83326   0.00000  Uiso   1.00
N89    N     0.91593   0.56037   0.36259   0.00000  Uiso   1.00
N90    N     0.83978   0.78855   0.19403   0.00000  Uiso   1.00
N91    N     0.37719   0.27677   0.92526   0.00000  Uiso   1.00
N92    N     0.84729   0.48787   0.45459   0.00000  Uiso   1.00
C93    C     0.76281   0.73675   0.59123   0.00000  Uiso   1.00
C94    C     0.78617   0.86531   0.61670   0.00000  Uiso   1.00
C95    C     0.84404   0.93302   0.58686   0.00000  Uiso   1.00
C96    C     0.85653   0.04882   0.61790   0.00000  Uiso   1.00
C97    C     0.89945   0.24141   0.64847   0.00000  Uiso   1.00
C98    C     0.65867   0.73077   0.54262   0.00000  Uiso   1.00
C99    C     0.60935   0.68534   0.45049   0.00000  Uiso   1.00
C100   C     0.51451   0.68788   0.41918   0.00000  Uiso   1.00
C101   C     0.35949   0.67152   0.33476   0.00000  Uiso   1.00
C102   C     0.78825   0.67260   0.68851   0.00000  Uiso   1.00
C103   C     0.84785   0.57825   0.71904   0.00000  Uiso   1.00
C104   C     0.86209   0.53180   0.81054   0.00000  Uiso   1.00
C105   C     0.90824   0.42512   0.95263   0.00000  Uiso   1.00
C106   C     0.68209   0.82201   0.69942   0.00000  Uiso   1.00
C107   C     0.74233   0.91161   0.67547   0.00000  Uiso   1.00
C108   C     0.75474   0.02735   0.70656   0.00000  Uiso   1.00
C109   C     0.81262   0.09522   0.67677   0.00000  Uiso   1.00
C110   C     0.61483   0.77707   0.60138   0.00000  Uiso   1.00
C111   C     0.52005   0.77967   0.57020   0.00000  Uiso   1.00
C112   C     0.47059   0.73427   0.47805   0.00000  Uiso   1.00
C113   C     0.74441   0.71891   0.74727   0.00000  Uiso   1.00
C114   C     0.75855   0.67259   0.83874   0.00000  Uiso   1.00
C115   C     0.81816   0.57819   0.86941   0.00000  Uiso   1.00
H116   H     0.79693   0.70070   0.54548   0.00000  Uiso   1.00
H117   H     0.87795   0.89715   0.54137   0.00000  Uiso   1.00
H118   H     0.64330   0.64950   0.40504   0.00000  Uiso   1.00
H119   H     0.88176   0.54244   0.67354   0.00000  Uiso   1.00
H120   H     0.94841   0.13539   0.56271   0.00000  Uiso   1.00
H121   H     0.45363   0.61318   0.27525   0.00000  Uiso   1.00
H122   H     0.95648   0.38740   0.84144   0.00000  Uiso   1.00
H123   H     0.64795   0.85806   0.74517   0.00000  Uiso   1.00
H124   H     0.72080   0.06316   0.75204   0.00000  Uiso   1.00
H125   H     0.48614   0.81551   0.61569   0.00000  Uiso   1.00
H126   H     0.72461   0.70844   0.88420   0.00000  Uiso   1.00
H127   H     0.82086   0.27013   0.73369   0.00000  Uiso   1.00
H128   H     0.32608   0.74791   0.44623   0.00000  Uiso   1.00
H129   H     0.82893   0.52214   0.01242   0.00000  Uiso   1.00
O130   O     0.93522   0.33485   0.64908   0.00000  Uiso   1.00
O131   O     0.28609   0.64971   0.27196   0.00000  Uiso   1.00
O132   O     0.94582   0.35350   0.01478   0.00000  Uiso   1.00
N133   N     0.90841   0.13895   0.60203   0.00000  Uiso   1.00
N134   N     0.44582   0.65073   0.33326   0.00000  Uiso   1.00
N135   N     0.91593   0.43963   0.86259   0.00000  Uiso   1.00
N136   N     0.83978   0.21145   0.69403   0.00000  Uiso   1.00
N137   N     0.37719   0.72323   0.42526   0.00000  Uiso   1.00
N138   N     0.84729   0.51213   0.95459   0.00000  Uiso   1.00
C139   C     0.23719   0.73675   0.90877   0.00000  Uiso   1.00
C140   C     0.21383   0.86531   0.88330   0.00000  Uiso   1.00
C141   C     0.15596   0.93302   0.91314   0.00000  Uiso   1.00
C142   C     0.14347   0.04882   0.88210   0.00000  Uiso   1.00
C143   C     0.10055   0.24141   0.85153   0.00000  Uiso   1.00
C144   C     0.34133   0.73077   0.95738   0.00000  Uiso   1.00
C145   C     0.39065   0.68534   0.04951   0.00000  Uiso   1.00
C146   C     0.48549   0.68788   0.08082   0.00000  Uiso   1.00
C147   C     0.64051   0.67152   0.16524   0.00000  Uiso   1.00
C148   C     0.21175   0.67260   0.81149   0.00000  Uiso   1.00
C149   C     0.15215   0.57825   0.78096   0.00000  Uiso   1.00
C150   C     0.13791   0.53180   0.68946   0.00000  Uiso   1.00
C151   C     0.09176   0.42512   0.54737   0.00000  Uiso   1.00
C152   C     0.31791   0.82201   0.80058   0.00000  Uiso   1.00
C153   C     0.25767   0.91161   0.82453   0.00000  Uiso   1.00
C154   C     0.24526   0.02735   0.79344   0.00000  Uiso   1.00
C155   C     0.18738   0.09522   0.82323   0.00000  Uiso   1.00
C156   C     0.38517   0.77707   0.89862   0.00000  Uiso   1.00
C157   C     0.47995   0.77967   0.92980   0.00000  Uiso   1.00
C158   C     0.52941   0.73427   0.02195   0.00000  Uiso   1.00
C159   C     0.25559   0.71891   0.75273   0.00000  Uiso   1.00
C160   C     0.24145   0.67259   0.66126   0.00000  Uiso   1.00
C161   C     0.18184   0.57819   0.63059   0.00000  Uiso   1.00
H162   H     0.20307   0.70070   0.95452   0.00000  Uiso   1.00
H163   H     0.12205   0.89715   0.95863   0.00000  Uiso   1.00
H164   H     0.35670   0.64950   0.09496   0.00000  Uiso   1.00
H165   H     0.11824   0.54244   0.82646   0.00000  Uiso   1.00
H166   H     0.05159   0.13539   0.93729   0.00000  Uiso   1.00
H167   H     0.54637   0.61318   0.22475   0.00000  Uiso   1.00
H168   H     0.04352   0.38740   0.65856   0.00000  Uiso   1.00
H169   H     0.35205   0.85806   0.75483   0.00000  Uiso   1.00
H170   H     0.27920   0.06316   0.74796   0.00000  Uiso   1.00
H171   H     0.51386   0.81551   0.88431   0.00000  Uiso   1.00
H172   H     0.27539   0.70844   0.61580   0.00000  Uiso   1.00
H173   H     0.17914   0.27013   0.76631   0.00000  Uiso   1.00
H174   H     0.67392   0.74791   0.05377   0.00000  Uiso   1.00
H175   H     0.17107   0.52214   0.48758   0.00000  Uiso   1.00
O176   O     0.06478   0.33485   0.85092   0.00000  Uiso   1.00
O177   O     0.71391   0.64971   0.22804   0.00000  Uiso   1.00
O178   O     0.05418   0.35350   0.48522   0.00000  Uiso   1.00
N179   N     0.09159   0.13895   0.89797   0.00000  Uiso   1.00
N180   N     0.55418   0.65073   0.16674   0.00000  Uiso   1.00
N181   N     0.08407   0.43963   0.63741   0.00000  Uiso   1.00
N182   N     0.16022   0.21145   0.80597   0.00000  Uiso   1.00
N183   N     0.62281   0.72323   0.07474   0.00000  Uiso   1.00
N184   N     0.15271   0.51213   0.54541   0.00000  Uiso   1.00
