data_job_05889
_audit_creation_date              2018-12-19
_audit_creation_method            'Materials Studio'
_symmetry_space_group_name_H-M    'P1'
_symmetry_Int_Tables_number       1
_symmetry_cell_setting            triclinic
loop_
_symmetry_equiv_pos_as_xyz
  x,y,z
_cell_length_a                    18.1008
_cell_length_b                    18.1008
_cell_length_c                    14.5959
_cell_angle_alpha                 90.0000
_cell_angle_beta                  90.0000
_cell_angle_gamma                 120.0000
loop_
_atom_site_label
_atom_site_type_symbol
_atom_site_fract_x
_atom_site_fract_y
_atom_site_fract_z
_atom_site_U_iso_or_equiv
_atom_site_adp_type
_atom_site_occupancy
C1     C     0.74853   0.30454   0.83920   0.00000  Uiso   1.00
C2     C     0.83077   0.35088   0.78378   0.00000  Uiso   1.00
C3     C     0.88087   0.43864   0.77391   0.00000  Uiso   1.00
C4     C     0.95367   0.46849   0.72036   0.00000  Uiso   1.00
C5     C     0.07803   0.54895   0.64067   0.00000  Uiso   1.00
C6     C     0.68027   0.24324   0.77283   0.00000  Uiso   1.00
C7     C     0.60381   0.24049   0.75377   0.00000  Uiso   1.00
C8     C     0.54992   0.17973   0.69100   0.00000  Uiso   1.00
C9     C     0.44058   0.09304   0.59437   0.00000  Uiso   1.00
C10    C     0.76210   0.24891   0.90782   0.00000  Uiso   1.00
C11    C     0.75443   0.25090   0.00227   0.00000  Uiso   1.00
C12    C     0.76941   0.19490   0.05316   0.00000  Uiso   1.00
C13    C     0.78713   0.11700   0.16613   0.00000  Uiso   1.00
C14    C     0.78874   0.20151   0.76163   0.00000  Uiso   1.00
C15    C     0.85261   0.29491   0.74164   0.00000  Uiso   1.00
C16    C     0.92536   0.32464   0.68809   0.00000  Uiso   1.00
C17    C     0.97556   0.41243   0.67815   0.00000  Uiso   1.00
C18    C     0.70211   0.18728   0.73069   0.00000  Uiso   1.00
C19    C     0.64831   0.12650   0.66794   0.00000  Uiso   1.00
C20    C     0.57180   0.12367   0.64879   0.00000  Uiso   1.00
C21    C     0.78394   0.19294   0.86569   0.00000  Uiso   1.00
C22    C     0.79893   0.13692   0.91644   0.00000  Uiso   1.00
C23    C     0.79129   0.13883   0.01095   0.00000  Uiso   1.00
H24    H     0.73152   0.34811   0.87200   0.00000  Uiso   1.00
H25    H     0.86394   0.48192   0.80653   0.00000  Uiso   1.00
H26    H     0.58692   0.28381   0.78639   0.00000  Uiso   1.00
H27    H     0.73752   0.29422   0.03486   0.00000  Uiso   1.00
H28    H     0.02036   0.60560   0.71533   0.00000  Uiso   1.00
H29    H     0.43626   0.18784   0.67290   0.00000  Uiso   1.00
H30    H     0.75382   0.20979   0.19683   0.00000  Uiso   1.00
H31    H     0.80575   0.15794   0.72882   0.00000  Uiso   1.00
H32    H     0.94225   0.28132   0.65549   0.00000  Uiso   1.00
H33    H     0.66523   0.08320   0.63535   0.00000  Uiso   1.00
H34    H     0.81583   0.09362   0.88381   0.00000  Uiso   1.00
H35    H     0.08392   0.44278   0.59273   0.00000  Uiso   1.00
H36    H     0.49981   0.02502   0.55031   0.00000  Uiso   1.00
H37    H     0.81738   0.04698   0.07424   0.00000  Uiso   1.00
O38    O     0.14058   0.60879   0.60835   0.00000  Uiso   1.00
O39    O     0.37425   0.06069   0.55270   0.00000  Uiso   1.00
O40    O     0.79089   0.08950   0.24008   0.00000  Uiso   1.00
N41    N     0.01660   0.55035   0.69655   0.00000  Uiso   1.00
N42    N     0.47050   0.15978   0.65687   0.00000  Uiso   1.00
N43    N     0.76737   0.18029   0.14671   0.00000  Uiso   1.00
N44    N     0.05080   0.46274   0.63059   0.00000  Uiso   1.00
N45    N     0.50470   0.07217   0.59091   0.00000  Uiso   1.00
N46    N     0.80157   0.09268   0.08074   0.00000  Uiso   1.00
C47    C     0.69546   0.44398   0.50587   0.00000  Uiso   1.00
C48    C     0.64912   0.47989   0.45045   0.00000  Uiso   1.00
C49    C     0.56136   0.44223   0.44058   0.00000  Uiso   1.00
C50    C     0.53151   0.48517   0.38702   0.00000  Uiso   1.00
C51    C     0.45105   0.52908   0.30734   0.00000  Uiso   1.00
C52    C     0.75676   0.43702   0.43949   0.00000  Uiso   1.00
C53    C     0.75951   0.36332   0.42044   0.00000  Uiso   1.00
C54    C     0.82027   0.37018   0.35767   0.00000  Uiso   1.00
C55    C     0.90696   0.34754   0.26103   0.00000  Uiso   1.00
C56    C     0.75109   0.51319   0.57449   0.00000  Uiso   1.00
C57    C     0.74910   0.50352   0.66894   0.00000  Uiso   1.00
C58    C     0.80510   0.57451   0.71983   0.00000  Uiso   1.00
C59    C     0.88300   0.67013   0.83280   0.00000  Uiso   1.00
C60    C     0.79849   0.58723   0.42829   0.00000  Uiso   1.00
C61    C     0.70509   0.55770   0.40831   0.00000  Uiso   1.00
C62    C     0.67536   0.60072   0.35475   0.00000  Uiso   1.00
C63    C     0.58757   0.56312   0.34481   0.00000  Uiso   1.00
C64    C     0.81272   0.51483   0.39736   0.00000  Uiso   1.00
C65    C     0.87350   0.52180   0.33461   0.00000  Uiso   1.00
C66    C     0.87633   0.44813   0.31545   0.00000  Uiso   1.00
C67    C     0.80706   0.59100   0.53236   0.00000  Uiso   1.00
C68    C     0.86308   0.66201   0.58311   0.00000  Uiso   1.00
C69    C     0.86117   0.65246   0.67762   0.00000  Uiso   1.00
H70    H     0.65189   0.38341   0.53867   0.00000  Uiso   1.00
H71    H     0.51808   0.38201   0.47319   0.00000  Uiso   1.00
H72    H     0.71619   0.30312   0.45306   0.00000  Uiso   1.00
H73    H     0.70578   0.44330   0.70152   0.00000  Uiso   1.00
H74    H     0.39440   0.41476   0.38199   0.00000  Uiso   1.00
H75    H     0.81216   0.24842   0.33956   0.00000  Uiso   1.00
H76    H     0.79021   0.54402   0.86350   0.00000  Uiso   1.00
H77    H     0.84206   0.64781   0.39549   0.00000  Uiso   1.00
H78    H     0.71868   0.66093   0.32215   0.00000  Uiso   1.00
H79    H     0.91680   0.58203   0.30202   0.00000  Uiso   1.00
H80    H     0.90638   0.72221   0.55048   0.00000  Uiso   1.00
H81    H     0.55722   0.64114   0.25940   0.00000  Uiso   1.00
H82    H     0.97498   0.47479   0.21697   0.00000  Uiso   1.00
H83    H     0.95302   0.77040   0.74090   0.00000  Uiso   1.00
O84    O     0.39121   0.53180   0.27502   0.00000  Uiso   1.00
O85    O     0.93931   0.31355   0.21937   0.00000  Uiso   1.00
O86    O     0.91050   0.70139   0.90675   0.00000  Uiso   1.00
N87    N     0.44965   0.46625   0.36322   0.00000  Uiso   1.00
N88    N     0.84022   0.31072   0.32354   0.00000  Uiso   1.00
N89    N     0.81971   0.58708   0.81337   0.00000  Uiso   1.00
N90    N     0.53726   0.58806   0.29725   0.00000  Uiso   1.00
N91    N     0.92783   0.43253   0.25758   0.00000  Uiso   1.00
N92    N     0.90732   0.70889   0.74741   0.00000  Uiso   1.00
C93    C     0.55602   0.25147   0.17253   0.00000  Uiso   1.00
C94    C     0.52011   0.16923   0.11711   0.00000  Uiso   1.00
C95    C     0.55777   0.11913   0.10725   0.00000  Uiso   1.00
C96    C     0.51483   0.04633   0.05369   0.00000  Uiso   1.00
C97    C     0.47092   0.92197   0.97400   0.00000  Uiso   1.00
C98    C     0.56298   0.31973   0.10616   0.00000  Uiso   1.00
C99    C     0.63668   0.39619   0.08710   0.00000  Uiso   1.00
C100   C     0.62982   0.45008   0.02433   0.00000  Uiso   1.00
C101   C     0.65246   0.55942   0.92770   0.00000  Uiso   1.00
C102   C     0.48681   0.23790   0.24116   0.00000  Uiso   1.00
C103   C     0.49648   0.24557   0.33561   0.00000  Uiso   1.00
C104   C     0.42549   0.23059   0.38650   0.00000  Uiso   1.00
C105   C     0.32987   0.21287   0.49946   0.00000  Uiso   1.00
C106   C     0.41277   0.21126   0.09496   0.00000  Uiso   1.00
C107   C     0.44230   0.14739   0.07497   0.00000  Uiso   1.00
C108   C     0.39928   0.07464   0.02142   0.00000  Uiso   1.00
C109   C     0.43688   0.02444   0.01148   0.00000  Uiso   1.00
C110   C     0.48517   0.29789   0.06403   0.00000  Uiso   1.00
C111   C     0.47820   0.35169   0.00128   0.00000  Uiso   1.00
C112   C     0.55187   0.42820   0.98212   0.00000  Uiso   1.00
C113   C     0.40900   0.21606   0.19902   0.00000  Uiso   1.00
C114   C     0.33799   0.20107   0.24978   0.00000  Uiso   1.00
C115   C     0.34754   0.20871   0.34428   0.00000  Uiso   1.00
H116   H     0.61659   0.26848   0.20534   0.00000  Uiso   1.00
H117   H     0.61799   0.13606   0.13986   0.00000  Uiso   1.00
H118   H     0.69688   0.41308   0.11973   0.00000  Uiso   1.00
H119   H     0.55670   0.26248   0.36819   0.00000  Uiso   1.00
H120   H     0.58524   0.97964   0.04866   0.00000  Uiso   1.00
H121   H     0.75158   0.56374   0.00623   0.00000  Uiso   1.00
H122   H     0.45598   0.24618   0.53016   0.00000  Uiso   1.00
H123   H     0.35219   0.19425   0.06215   0.00000  Uiso   1.00
H124   H     0.33907   0.05775   0.98882   0.00000  Uiso   1.00
H125   H     0.41797   0.33477   0.96869   0.00000  Uiso   1.00
H126   H     0.27779   0.18417   0.21715   0.00000  Uiso   1.00
H127   H     0.35886   0.91608   0.92607   0.00000  Uiso   1.00
H128   H     0.52521   0.50019   0.88364   0.00000  Uiso   1.00
H129   H     0.22960   0.18262   0.40757   0.00000  Uiso   1.00
O130   O     0.46820   0.85942   0.94168   0.00000  Uiso   1.00
O131   O     0.68645   0.62575   0.88603   0.00000  Uiso   1.00
O132   O     0.29861   0.20911   0.57342   0.00000  Uiso   1.00
N133   N     0.53375   0.98340   0.02989   0.00000  Uiso   1.00
N134   N     0.68928   0.52950   0.99021   0.00000  Uiso   1.00
N135   N     0.41292   0.23263   0.48004   0.00000  Uiso   1.00
N136   N     0.41194   0.94920   0.96392   0.00000  Uiso   1.00
N137   N     0.56747   0.49530   0.92424   0.00000  Uiso   1.00
N138   N     0.29111   0.19843   0.41407   0.00000  Uiso   1.00
C139   C     0.30454   0.74853   0.16080   0.00000  Uiso   1.00
C140   C     0.35088   0.83077   0.21622   0.00000  Uiso   1.00
C141   C     0.43864   0.88087   0.22609   0.00000  Uiso   1.00
C142   C     0.46849   0.95367   0.27964   0.00000  Uiso   1.00
C143   C     0.54895   0.07803   0.35933   0.00000  Uiso   1.00
C144   C     0.24324   0.68027   0.22717   0.00000  Uiso   1.00
C145   C     0.24049   0.60381   0.24623   0.00000  Uiso   1.00
C146   C     0.17973   0.54992   0.30900   0.00000  Uiso   1.00
C147   C     0.09304   0.44058   0.40563   0.00000  Uiso   1.00
C148   C     0.24891   0.76210   0.09218   0.00000  Uiso   1.00
C149   C     0.25090   0.75443   0.99773   0.00000  Uiso   1.00
C150   C     0.19490   0.76941   0.94684   0.00000  Uiso   1.00
C151   C     0.11700   0.78713   0.83387   0.00000  Uiso   1.00
C152   C     0.20151   0.78874   0.23837   0.00000  Uiso   1.00
C153   C     0.29491   0.85261   0.25836   0.00000  Uiso   1.00
C154   C     0.32464   0.92536   0.31191   0.00000  Uiso   1.00
C155   C     0.41243   0.97556   0.32185   0.00000  Uiso   1.00
C156   C     0.18728   0.70211   0.26931   0.00000  Uiso   1.00
C157   C     0.12650   0.64831   0.33206   0.00000  Uiso   1.00
C158   C     0.12367   0.57180   0.35121   0.00000  Uiso   1.00
C159   C     0.19294   0.78394   0.13431   0.00000  Uiso   1.00
C160   C     0.13692   0.79893   0.08356   0.00000  Uiso   1.00
C161   C     0.13883   0.79129   0.98905   0.00000  Uiso   1.00
H162   H     0.34811   0.73152   0.12800   0.00000  Uiso   1.00
H163   H     0.48192   0.86394   0.19347   0.00000  Uiso   1.00
H164   H     0.28381   0.58692   0.21361   0.00000  Uiso   1.00
H165   H     0.29422   0.73752   0.96514   0.00000  Uiso   1.00
H166   H     0.60560   0.02036   0.28467   0.00000  Uiso   1.00
H167   H     0.18784   0.43626   0.32710   0.00000  Uiso   1.00
H168   H     0.20979   0.75382   0.80317   0.00000  Uiso   1.00
H169   H     0.15794   0.80575   0.27118   0.00000  Uiso   1.00
H170   H     0.28132   0.94225   0.34451   0.00000  Uiso   1.00
H171   H     0.08320   0.66523   0.36465   0.00000  Uiso   1.00
H172   H     0.09362   0.81583   0.11619   0.00000  Uiso   1.00
H173   H     0.44278   0.08392   0.40727   0.00000  Uiso   1.00
H174   H     0.02502   0.49981   0.44969   0.00000  Uiso   1.00
H175   H     0.04698   0.81738   0.92576   0.00000  Uiso   1.00
O176   O     0.60879   0.14058   0.39165   0.00000  Uiso   1.00
O177   O     0.06069   0.37425   0.44730   0.00000  Uiso   1.00
O178   O     0.08950   0.79089   0.75992   0.00000  Uiso   1.00
N179   N     0.55035   0.01660   0.30345   0.00000  Uiso   1.00
N180   N     0.15978   0.47050   0.34313   0.00000  Uiso   1.00
N181   N     0.18029   0.76737   0.85329   0.00000  Uiso   1.00
N182   N     0.46274   0.05080   0.36941   0.00000  Uiso   1.00
N183   N     0.07217   0.50470   0.40909   0.00000  Uiso   1.00
N184   N     0.09268   0.80157   0.91926   0.00000  Uiso   1.00
C185   C     0.44398   0.69546   0.49413   0.00000  Uiso   1.00
C186   C     0.47989   0.64912   0.54955   0.00000  Uiso   1.00
C187   C     0.44223   0.56136   0.55942   0.00000  Uiso   1.00
C188   C     0.48517   0.53151   0.61298   0.00000  Uiso   1.00
C189   C     0.52908   0.45105   0.69266   0.00000  Uiso   1.00
C190   C     0.43702   0.75676   0.56051   0.00000  Uiso   1.00
C191   C     0.36332   0.75951   0.57956   0.00000  Uiso   1.00
C192   C     0.37018   0.82027   0.64233   0.00000  Uiso   1.00
C193   C     0.34754   0.90696   0.73897   0.00000  Uiso   1.00
C194   C     0.51319   0.75109   0.42551   0.00000  Uiso   1.00
C195   C     0.50352   0.74910   0.33106   0.00000  Uiso   1.00
C196   C     0.57451   0.80510   0.28017   0.00000  Uiso   1.00
C197   C     0.67013   0.88300   0.16720   0.00000  Uiso   1.00
C198   C     0.58723   0.79849   0.57171   0.00000  Uiso   1.00
C199   C     0.55770   0.70509   0.59169   0.00000  Uiso   1.00
C200   C     0.60072   0.67536   0.64525   0.00000  Uiso   1.00
C201   C     0.56312   0.58757   0.65519   0.00000  Uiso   1.00
C202   C     0.51483   0.81272   0.60264   0.00000  Uiso   1.00
C203   C     0.52180   0.87350   0.66539   0.00000  Uiso   1.00
C204   C     0.44813   0.87633   0.68455   0.00000  Uiso   1.00
C205   C     0.59100   0.80706   0.46764   0.00000  Uiso   1.00
C206   C     0.66201   0.86308   0.41689   0.00000  Uiso   1.00
C207   C     0.65246   0.86117   0.32238   0.00000  Uiso   1.00
H208   H     0.38341   0.65189   0.46133   0.00000  Uiso   1.00
H209   H     0.38201   0.51808   0.52681   0.00000  Uiso   1.00
H210   H     0.30312   0.71619   0.54694   0.00000  Uiso   1.00
H211   H     0.44330   0.70578   0.29848   0.00000  Uiso   1.00
H212   H     0.41476   0.39440   0.61801   0.00000  Uiso   1.00
H213   H     0.24842   0.81216   0.66044   0.00000  Uiso   1.00
H214   H     0.54402   0.79021   0.13650   0.00000  Uiso   1.00
H215   H     0.64781   0.84206   0.60451   0.00000  Uiso   1.00
H216   H     0.66093   0.71868   0.67785   0.00000  Uiso   1.00
H217   H     0.58203   0.91680   0.69798   0.00000  Uiso   1.00
H218   H     0.72221   0.90638   0.44952   0.00000  Uiso   1.00
H219   H     0.64114   0.55722   0.74060   0.00000  Uiso   1.00
H220   H     0.47479   0.97498   0.78303   0.00000  Uiso   1.00
H221   H     0.77040   0.95302   0.25910   0.00000  Uiso   1.00
O222   O     0.53180   0.39121   0.72498   0.00000  Uiso   1.00
O223   O     0.31355   0.93931   0.78063   0.00000  Uiso   1.00
O224   O     0.70139   0.91050   0.09325   0.00000  Uiso   1.00
N225   N     0.46625   0.44965   0.63678   0.00000  Uiso   1.00
N226   N     0.31072   0.84022   0.67646   0.00000  Uiso   1.00
N227   N     0.58708   0.81971   0.18663   0.00000  Uiso   1.00
N228   N     0.58806   0.53726   0.70275   0.00000  Uiso   1.00
N229   N     0.43253   0.92783   0.74242   0.00000  Uiso   1.00
N230   N     0.70889   0.90732   0.25259   0.00000  Uiso   1.00
C231   C     0.25147   0.55602   0.82747   0.00000  Uiso   1.00
C232   C     0.16923   0.52011   0.88289   0.00000  Uiso   1.00
C233   C     0.11913   0.55777   0.89275   0.00000  Uiso   1.00
C234   C     0.04633   0.51483   0.94631   0.00000  Uiso   1.00
C235   C     0.92197   0.47092   0.02600   0.00000  Uiso   1.00
C236   C     0.31973   0.56298   0.89384   0.00000  Uiso   1.00
C237   C     0.39619   0.63668   0.91290   0.00000  Uiso   1.00
C238   C     0.45008   0.62982   0.97567   0.00000  Uiso   1.00
C239   C     0.55942   0.65246   0.07230   0.00000  Uiso   1.00
C240   C     0.23790   0.48681   0.75884   0.00000  Uiso   1.00
C241   C     0.24557   0.49648   0.66439   0.00000  Uiso   1.00
C242   C     0.23059   0.42549   0.61350   0.00000  Uiso   1.00
C243   C     0.21287   0.32987   0.50054   0.00000  Uiso   1.00
C244   C     0.21126   0.41277   0.90504   0.00000  Uiso   1.00
C245   C     0.14739   0.44230   0.92503   0.00000  Uiso   1.00
C246   C     0.07464   0.39928   0.97858   0.00000  Uiso   1.00
C247   C     0.02444   0.43688   0.98852   0.00000  Uiso   1.00
C248   C     0.29789   0.48517   0.93597   0.00000  Uiso   1.00
C249   C     0.35169   0.47820   0.99872   0.00000  Uiso   1.00
C250   C     0.42820   0.55187   0.01788   0.00000  Uiso   1.00
C251   C     0.21606   0.40900   0.80098   0.00000  Uiso   1.00
C252   C     0.20107   0.33799   0.75022   0.00000  Uiso   1.00
C253   C     0.20871   0.34754   0.65572   0.00000  Uiso   1.00
H254   H     0.26848   0.61659   0.79466   0.00000  Uiso   1.00
H255   H     0.13606   0.61799   0.86014   0.00000  Uiso   1.00
H256   H     0.41308   0.69688   0.88027   0.00000  Uiso   1.00
H257   H     0.26248   0.55670   0.63181   0.00000  Uiso   1.00
H258   H     0.97964   0.58524   0.95134   0.00000  Uiso   1.00
H259   H     0.56374   0.75158   0.99377   0.00000  Uiso   1.00
H260   H     0.24618   0.45598   0.46984   0.00000  Uiso   1.00
H261   H     0.19425   0.35219   0.93785   0.00000  Uiso   1.00
H262   H     0.05775   0.33907   0.01118   0.00000  Uiso   1.00
H263   H     0.33477   0.41797   0.03131   0.00000  Uiso   1.00
H264   H     0.18417   0.27779   0.78285   0.00000  Uiso   1.00
H265   H     0.91608   0.35886   0.07393   0.00000  Uiso   1.00
H266   H     0.50019   0.52521   0.11636   0.00000  Uiso   1.00
H267   H     0.18262   0.22960   0.59243   0.00000  Uiso   1.00
O268   O     0.85942   0.46820   0.05832   0.00000  Uiso   1.00
O269   O     0.62575   0.68645   0.11397   0.00000  Uiso   1.00
O270   O     0.20911   0.29861   0.42658   0.00000  Uiso   1.00
N271   N     0.98340   0.53375   0.97011   0.00000  Uiso   1.00
N272   N     0.52950   0.68928   0.00979   0.00000  Uiso   1.00
N273   N     0.23263   0.41292   0.51996   0.00000  Uiso   1.00
N274   N     0.94920   0.41194   0.03608   0.00000  Uiso   1.00
N275   N     0.49530   0.56747   0.07576   0.00000  Uiso   1.00
N276   N     0.19843   0.29111   0.58593   0.00000  Uiso   1.00
