data_job_01156
_audit_creation_date              2018-12-19
_audit_creation_method            'Materials Studio'
_symmetry_space_group_name_H-M    'P1'
_symmetry_Int_Tables_number       1
_symmetry_cell_setting            triclinic
loop_
_symmetry_equiv_pos_as_xyz
  x,y,z
_cell_length_a                    14.5355
_cell_length_b                    9.5010
_cell_length_c                    17.4519
_cell_angle_alpha                 90.0000
_cell_angle_beta                  90.0000
_cell_angle_gamma                 90.0000
loop_
_atom_site_label
_atom_site_type_symbol
_atom_site_fract_x
_atom_site_fract_y
_atom_site_fract_z
_atom_site_U_iso_or_equiv
_atom_site_adp_type
_atom_site_occupancy
C1     C     0.38127   0.72972   0.47827   0.00000  Uiso   1.00
C2     C     0.42817   0.62439   0.53138   0.00000  Uiso   1.00
C3     C     0.42210   0.47895   0.52601   0.00000  Uiso   1.00
C4     C     0.47010   0.40093   0.58011   0.00000  Uiso   1.00
C5     C     0.53496   0.22745   0.65387   0.00000  Uiso   1.00
C6     C     0.32367   0.82484   0.52977   0.00000  Uiso   1.00
C7     C     0.22973   0.84796   0.52303   0.00000  Uiso   1.00
C8     C     0.18977   0.93870   0.57577   0.00000  Uiso   1.00
C9     C     0.09239   0.07652   0.64699   0.00000  Uiso   1.00
C10    C     0.45777   0.82222   0.44605   0.00000  Uiso   1.00
C11    C     0.47659   0.84317   0.36892   0.00000  Uiso   1.00
C12    C     0.54952   0.93174   0.35117   0.00000  Uiso   1.00
C13    C     0.66037   0.06548   0.29241   0.00000  Uiso   1.00
C14    C     0.47731   0.84979   0.58388   0.00000  Uiso   1.00
C15    C     0.48033   0.68961   0.58874   0.00000  Uiso   1.00
C16    C     0.52836   0.61179   0.64286   0.00000  Uiso   1.00
C17    C     0.52237   0.46626   0.63758   0.00000  Uiso   1.00
C18    C     0.37583   0.89006   0.58713   0.00000  Uiso   1.00
C19    C     0.33599   0.98080   0.63988   0.00000  Uiso   1.00
C20    C     0.24203   0.00404   0.63324   0.00000  Uiso   1.00
C21    C     0.50994   0.88744   0.50341   0.00000  Uiso   1.00
C22    C     0.58285   0.97600   0.48578   0.00000  Uiso   1.00
C23    C     0.60178   0.99707   0.40864   0.00000  Uiso   1.00
H24    H     0.34065   0.67896   0.43361   0.00000  Uiso   1.00
H25    H     0.38172   0.42852   0.48161   0.00000  Uiso   1.00
H26    H     0.18939   0.79749   0.47863   0.00000  Uiso   1.00
H27    H     0.43621   0.79268   0.32455   0.00000  Uiso   1.00
H28    H     0.45023   0.17962   0.56015   0.00000  Uiso   1.00
H29    H     0.04469   0.95764   0.55384   0.00000  Uiso   1.00
H30    H     0.56516   0.94753   0.22893   0.00000  Uiso   1.00
H31    H     0.51792   0.90057   0.62855   0.00000  Uiso   1.00
H32    H     0.56872   0.66229   0.68725   0.00000  Uiso   1.00
H33    H     0.37639   0.03125   0.68427   0.00000  Uiso   1.00
H34    H     0.62321   0.02645   0.53019   0.00000  Uiso   1.00
H35    H     0.60200   0.36936   0.72705   0.00000  Uiso   1.00
H36    H     0.19646   0.14739   0.72075   0.00000  Uiso   1.00
H37    H     0.71693   0.13726   0.39583   0.00000  Uiso   1.00
O38    O     0.55631   0.11374   0.67871   0.00000  Uiso   1.00
O39    O     0.02427   0.13450   0.67043   0.00000  Uiso   1.00
O40    O     0.70711   0.12121   0.24415   0.00000  Uiso   1.00
N41    N     0.47899   0.25698   0.59136   0.00000  Uiso   1.00
N42    N     0.09983   0.98437   0.58548   0.00000  Uiso   1.00
N43    N     0.58641   0.97494   0.28171   0.00000  Uiso   1.00
N44    N     0.56066   0.35907   0.68117   0.00000  Uiso   1.00
N45    N     0.18151   0.08646   0.67529   0.00000  Uiso   1.00
N46    N     0.66808   0.07703   0.37152   0.00000  Uiso   1.00
C47    C     0.11873   0.27028   0.97827   0.00000  Uiso   1.00
C48    C     0.07183   0.37561   0.03138   0.00000  Uiso   1.00
C49    C     0.07790   0.52105   0.02601   0.00000  Uiso   1.00
C50    C     0.02990   0.59907   0.08011   0.00000  Uiso   1.00
C51    C     0.96504   0.77255   0.15387   0.00000  Uiso   1.00
C52    C     0.17633   0.17516   0.02977   0.00000  Uiso   1.00
C53    C     0.27027   0.15204   0.02303   0.00000  Uiso   1.00
C54    C     0.31023   0.06130   0.07577   0.00000  Uiso   1.00
C55    C     0.40761   0.92348   0.14699   0.00000  Uiso   1.00
C56    C     0.04223   0.17778   0.94605   0.00000  Uiso   1.00
C57    C     0.02341   0.15683   0.86892   0.00000  Uiso   1.00
C58    C     0.95048   0.06826   0.85117   0.00000  Uiso   1.00
C59    C     0.83963   0.93452   0.79241   0.00000  Uiso   1.00
C60    C     0.02269   0.15021   0.08388   0.00000  Uiso   1.00
C61    C     0.01967   0.31039   0.08874   0.00000  Uiso   1.00
C62    C     0.97164   0.38821   0.14286   0.00000  Uiso   1.00
C63    C     0.97763   0.53374   0.13758   0.00000  Uiso   1.00
C64    C     0.12417   0.10994   0.08713   0.00000  Uiso   1.00
C65    C     0.16401   0.01920   0.13988   0.00000  Uiso   1.00
C66    C     0.25797   0.99596   0.13324   0.00000  Uiso   1.00
C67    C     0.99006   0.11256   0.00341   0.00000  Uiso   1.00
C68    C     0.91715   0.02400   0.98578   0.00000  Uiso   1.00
C69    C     0.89822   0.00293   0.90864   0.00000  Uiso   1.00
H70    H     0.15935   0.32104   0.93361   0.00000  Uiso   1.00
H71    H     0.11828   0.57148   0.98161   0.00000  Uiso   1.00
H72    H     0.31061   0.20251   0.97863   0.00000  Uiso   1.00
H73    H     0.06379   0.20732   0.82455   0.00000  Uiso   1.00
H74    H     0.04977   0.82038   0.06015   0.00000  Uiso   1.00
H75    H     0.45531   0.04236   0.05384   0.00000  Uiso   1.00
H76    H     0.93484   0.05247   0.72893   0.00000  Uiso   1.00
H77    H     0.98208   0.09943   0.12855   0.00000  Uiso   1.00
H78    H     0.93128   0.33771   0.18725   0.00000  Uiso   1.00
H79    H     0.12361   0.96875   0.18427   0.00000  Uiso   1.00
H80    H     0.87679   0.97355   0.03019   0.00000  Uiso   1.00
H81    H     0.89800   0.63064   0.22705   0.00000  Uiso   1.00
H82    H     0.30354   0.85261   0.22075   0.00000  Uiso   1.00
H83    H     0.78307   0.86274   0.89583   0.00000  Uiso   1.00
O84    O     0.94369   0.88626   0.17871   0.00000  Uiso   1.00
O85    O     0.47573   0.86550   0.17043   0.00000  Uiso   1.00
O86    O     0.79289   0.87879   0.74415   0.00000  Uiso   1.00
N87    N     0.02101   0.74302   0.09136   0.00000  Uiso   1.00
N88    N     0.40017   0.01563   0.08548   0.00000  Uiso   1.00
N89    N     0.91359   0.02506   0.78171   0.00000  Uiso   1.00
N90    N     0.93934   0.64093   0.18117   0.00000  Uiso   1.00
N91    N     0.31849   0.91354   0.17529   0.00000  Uiso   1.00
N92    N     0.83192   0.92297   0.87152   0.00000  Uiso   1.00
C93    C     0.61873   0.22972   0.02173   0.00000  Uiso   1.00
C94    C     0.57183   0.12439   0.96862   0.00000  Uiso   1.00
C95    C     0.57790   0.97895   0.97399   0.00000  Uiso   1.00
C96    C     0.52990   0.90093   0.91989   0.00000  Uiso   1.00
C97    C     0.46504   0.72745   0.84613   0.00000  Uiso   1.00
C98    C     0.67633   0.32484   0.97023   0.00000  Uiso   1.00
C99    C     0.77027   0.34796   0.97697   0.00000  Uiso   1.00
C100   C     0.81023   0.43870   0.92423   0.00000  Uiso   1.00
C101   C     0.90761   0.57652   0.85301   0.00000  Uiso   1.00
C102   C     0.54223   0.32222   0.05395   0.00000  Uiso   1.00
C103   C     0.52341   0.34317   0.13108   0.00000  Uiso   1.00
C104   C     0.45048   0.43174   0.14883   0.00000  Uiso   1.00
C105   C     0.33963   0.56548   0.20759   0.00000  Uiso   1.00
C106   C     0.52269   0.34979   0.91612   0.00000  Uiso   1.00
C107   C     0.51967   0.18961   0.91126   0.00000  Uiso   1.00
C108   C     0.47164   0.11179   0.85714   0.00000  Uiso   1.00
C109   C     0.47763   0.96626   0.86242   0.00000  Uiso   1.00
C110   C     0.62417   0.39006   0.91287   0.00000  Uiso   1.00
C111   C     0.66401   0.48080   0.86012   0.00000  Uiso   1.00
C112   C     0.75797   0.50404   0.86676   0.00000  Uiso   1.00
C113   C     0.49006   0.38744   0.99659   0.00000  Uiso   1.00
C114   C     0.41715   0.47600   0.01422   0.00000  Uiso   1.00
C115   C     0.39822   0.49707   0.09136   0.00000  Uiso   1.00
H116   H     0.65935   0.17896   0.06639   0.00000  Uiso   1.00
H117   H     0.61828   0.92852   0.01839   0.00000  Uiso   1.00
H118   H     0.81061   0.29749   0.02137   0.00000  Uiso   1.00
H119   H     0.56379   0.29268   0.17545   0.00000  Uiso   1.00
H120   H     0.54977   0.67962   0.93985   0.00000  Uiso   1.00
H121   H     0.95531   0.45764   0.94616   0.00000  Uiso   1.00
H122   H     0.43484   0.44753   0.27107   0.00000  Uiso   1.00
H123   H     0.48208   0.40057   0.87145   0.00000  Uiso   1.00
H124   H     0.43128   0.16229   0.81275   0.00000  Uiso   1.00
H125   H     0.62361   0.53125   0.81573   0.00000  Uiso   1.00
H126   H     0.37679   0.52645   0.96981   0.00000  Uiso   1.00
H127   H     0.39800   0.86936   0.77295   0.00000  Uiso   1.00
H128   H     0.80354   0.64739   0.77925   0.00000  Uiso   1.00
H129   H     0.28307   0.63726   0.10417   0.00000  Uiso   1.00
O130   O     0.44369   0.61374   0.82129   0.00000  Uiso   1.00
O131   O     0.97573   0.63450   0.82957   0.00000  Uiso   1.00
O132   O     0.29289   0.62121   0.25585   0.00000  Uiso   1.00
N133   N     0.52101   0.75698   0.90864   0.00000  Uiso   1.00
N134   N     0.90017   0.48437   0.91452   0.00000  Uiso   1.00
N135   N     0.41359   0.47494   0.21829   0.00000  Uiso   1.00
N136   N     0.43934   0.85907   0.81883   0.00000  Uiso   1.00
N137   N     0.81849   0.58646   0.82471   0.00000  Uiso   1.00
N138   N     0.33192   0.57703   0.12848   0.00000  Uiso   1.00
C139   C     0.88127   0.77028   0.52173   0.00000  Uiso   1.00
C140   C     0.92817   0.87561   0.46862   0.00000  Uiso   1.00
C141   C     0.92210   0.02105   0.47399   0.00000  Uiso   1.00
C142   C     0.97010   0.09907   0.41989   0.00000  Uiso   1.00
C143   C     0.03496   0.27255   0.34613   0.00000  Uiso   1.00
C144   C     0.82367   0.67516   0.47023   0.00000  Uiso   1.00
C145   C     0.72973   0.65204   0.47697   0.00000  Uiso   1.00
C146   C     0.68977   0.56130   0.42423   0.00000  Uiso   1.00
C147   C     0.59239   0.42348   0.35301   0.00000  Uiso   1.00
C148   C     0.95777   0.67778   0.55395   0.00000  Uiso   1.00
C149   C     0.97659   0.65683   0.63108   0.00000  Uiso   1.00
C150   C     0.04952   0.56826   0.64883   0.00000  Uiso   1.00
C151   C     0.16037   0.43452   0.70759   0.00000  Uiso   1.00
C152   C     0.97731   0.65021   0.41612   0.00000  Uiso   1.00
C153   C     0.98033   0.81039   0.41126   0.00000  Uiso   1.00
C154   C     0.02836   0.88821   0.35714   0.00000  Uiso   1.00
C155   C     0.02237   0.03374   0.36242   0.00000  Uiso   1.00
C156   C     0.87583   0.60994   0.41287   0.00000  Uiso   1.00
C157   C     0.83599   0.51920   0.36012   0.00000  Uiso   1.00
C158   C     0.74203   0.49596   0.36676   0.00000  Uiso   1.00
C159   C     0.00994   0.61256   0.49659   0.00000  Uiso   1.00
C160   C     0.08285   0.52400   0.51422   0.00000  Uiso   1.00
C161   C     0.10178   0.50293   0.59136   0.00000  Uiso   1.00
H162   H     0.84065   0.82104   0.56639   0.00000  Uiso   1.00
H163   H     0.88172   0.07148   0.51839   0.00000  Uiso   1.00
H164   H     0.68939   0.70251   0.52137   0.00000  Uiso   1.00
H165   H     0.93621   0.70732   0.67545   0.00000  Uiso   1.00
H166   H     0.95023   0.32038   0.43985   0.00000  Uiso   1.00
H167   H     0.54469   0.54236   0.44616   0.00000  Uiso   1.00
H168   H     0.06516   0.55247   0.77107   0.00000  Uiso   1.00
H169   H     0.01792   0.59943   0.37145   0.00000  Uiso   1.00
H170   H     0.06872   0.83771   0.31275   0.00000  Uiso   1.00
H171   H     0.87639   0.46875   0.31573   0.00000  Uiso   1.00
H172   H     0.12321   0.47355   0.46981   0.00000  Uiso   1.00
H173   H     0.10200   0.13064   0.27295   0.00000  Uiso   1.00
H174   H     0.69646   0.35261   0.27925   0.00000  Uiso   1.00
H175   H     0.21693   0.36274   0.60417   0.00000  Uiso   1.00
O176   O     0.05631   0.38626   0.32129   0.00000  Uiso   1.00
O177   O     0.52427   0.36550   0.32957   0.00000  Uiso   1.00
O178   O     0.20711   0.37879   0.75585   0.00000  Uiso   1.00
N179   N     0.97899   0.24302   0.40864   0.00000  Uiso   1.00
N180   N     0.59983   0.51563   0.41452   0.00000  Uiso   1.00
N181   N     0.08641   0.52506   0.71829   0.00000  Uiso   1.00
N182   N     0.06066   0.14093   0.31883   0.00000  Uiso   1.00
N183   N     0.68151   0.41354   0.32471   0.00000  Uiso   1.00
N184   N     0.16808   0.42297   0.62848   0.00000  Uiso   1.00
