data_job_02297
_audit_creation_date              2018-12-19
_audit_creation_method            'Materials Studio'
_symmetry_space_group_name_H-M    'P1'
_symmetry_Int_Tables_number       1
_symmetry_cell_setting            triclinic
loop_
_symmetry_equiv_pos_as_xyz
  x,y,z
_cell_length_a                    23.0036
_cell_length_b                    16.9695
_cell_length_c                    20.6875
_cell_angle_alpha                 90.0000
_cell_angle_beta                  157.4148
_cell_angle_gamma                 90.0000
loop_
_atom_site_label
_atom_site_type_symbol
_atom_site_fract_x
_atom_site_fract_y
_atom_site_fract_z
_atom_site_U_iso_or_equiv
_atom_site_adp_type
_atom_site_occupancy
C1     C     0.33677   0.93675   0.16736   0.00000  Uiso   1.00
C2     C     0.35350   0.01885   0.21365   0.00000  Uiso   1.00
C3     C     0.48661   0.05131   0.37397   0.00000  Uiso   1.00
C4     C     0.47837   0.12728   0.39019   0.00000  Uiso   1.00
C5     C     0.52510   0.24836   0.48325   0.00000  Uiso   1.00
C6     C     0.21419   0.89559   0.08093   0.00000  Uiso   1.00
C7     C     0.23018   0.82440   0.12966   0.00000  Uiso   1.00
C8     C     0.10467   0.79660   0.03413   0.00000  Uiso   1.00
C9     C     0.93509   0.72628   0.92107   0.00000  Uiso   1.00
C10    C     0.27037   0.94872   0.03187   0.00000  Uiso   1.00
C11    C     0.33356   0.92219   0.03931   0.00000  Uiso   1.00
C12    C     0.25532   0.93911   0.90245   0.00000  Uiso   1.00
C13    C     0.17297   0.95129   0.71322   0.00000  Uiso   1.00
C14    C     0.08544   0.01395   0.91106   0.00000  Uiso   1.00
C15    C     0.21698   0.06078   0.07443   0.00000  Uiso   1.00
C16    C     0.20854   0.13672   0.09041   0.00000  Uiso   1.00
C17    C     0.34162   0.16928   0.25073   0.00000  Uiso   1.00
C18    C     0.07768   0.93751   0.94172   0.00000  Uiso   1.00
C19    C     0.95211   0.90981   0.84609   0.00000  Uiso   1.00
C20    C     0.96791   0.83860   0.89467   0.00000  Uiso   1.00
C21    C     0.13386   0.99065   0.89265   0.00000  Uiso   1.00
C22    C     0.05550   0.00761   0.75575   0.00000  Uiso   1.00
C23    C     0.11856   0.98111   0.76299   0.00000  Uiso   1.00
H24    H     0.44304   0.90411   0.27574   0.00000  Uiso   1.00
H25    H     0.59223   0.01884   0.48168   0.00000  Uiso   1.00
H26    H     0.33583   0.79196   0.23738   0.00000  Uiso   1.00
H27    H     0.43920   0.88974   0.14706   0.00000  Uiso   1.00
H28    H     0.69742   0.16452   0.64862   0.00000  Uiso   1.00
H29    H     0.15677   0.68613   0.13348   0.00000  Uiso   1.00
H30    H     0.37475   0.89231   0.94300   0.00000  Uiso   1.00
H31    H     0.97915   0.04659   0.80267   0.00000  Uiso   1.00
H32    H     0.10288   0.16915   0.98266   0.00000  Uiso   1.00
H33    H     0.84649   0.94227   0.73837   0.00000  Uiso   1.00
H34    H     0.94986   0.04005   0.64804   0.00000  Uiso   1.00
H35    H     0.30025   0.28652   0.24359   0.00000  Uiso   1.00
H36    H     0.75960   0.80812   0.72845   0.00000  Uiso   1.00
H37    H     0.97758   0.01431   0.53798   0.00000  Uiso   1.00
O38    O     0.58859   0.30356   0.57305   0.00000  Uiso   1.00
O39    O     0.87928   0.67592   0.89719   0.00000  Uiso   1.00
O40    O     0.16526   0.94644   0.64730   0.00000  Uiso   1.00
N41    N     0.58697   0.17642   0.52859   0.00000  Uiso   1.00
N42    N     0.08151   0.72916   0.04698   0.00000  Uiso   1.00
N43    N     0.28527   0.92191   0.86889   0.00000  Uiso   1.00
N44    N     0.37325   0.24207   0.31065   0.00000  Uiso   1.00
N45    N     0.86779   0.79480   0.82904   0.00000  Uiso   1.00
N46    N     0.07156   0.98755   0.65095   0.00000  Uiso   1.00
C47    C     0.66323   0.43675   0.33264   0.00000  Uiso   1.00
C48    C     0.64650   0.51885   0.28635   0.00000  Uiso   1.00
C49    C     0.51339   0.55131   0.12603   0.00000  Uiso   1.00
C50    C     0.52163   0.62728   0.10981   0.00000  Uiso   1.00
C51    C     0.47490   0.74836   0.01675   0.00000  Uiso   1.00
C52    C     0.78581   0.39559   0.41907   0.00000  Uiso   1.00
C53    C     0.76982   0.32440   0.37034   0.00000  Uiso   1.00
C54    C     0.89533   0.29660   0.46587   0.00000  Uiso   1.00
C55    C     0.06491   0.22628   0.57893   0.00000  Uiso   1.00
C56    C     0.72963   0.44872   0.46813   0.00000  Uiso   1.00
C57    C     0.66644   0.42219   0.46069   0.00000  Uiso   1.00
C58    C     0.74468   0.43911   0.59755   0.00000  Uiso   1.00
C59    C     0.82703   0.45129   0.78678   0.00000  Uiso   1.00
C60    C     0.91456   0.51395   0.58894   0.00000  Uiso   1.00
C61    C     0.78302   0.56078   0.42557   0.00000  Uiso   1.00
C62    C     0.79146   0.63672   0.40959   0.00000  Uiso   1.00
C63    C     0.65838   0.66928   0.24927   0.00000  Uiso   1.00
C64    C     0.92232   0.43751   0.55828   0.00000  Uiso   1.00
C65    C     0.04789   0.40981   0.65391   0.00000  Uiso   1.00
C66    C     0.03209   0.33860   0.60533   0.00000  Uiso   1.00
C67    C     0.86614   0.49065   0.60735   0.00000  Uiso   1.00
C68    C     0.94450   0.50761   0.74425   0.00000  Uiso   1.00
C69    C     0.88144   0.48111   0.73701   0.00000  Uiso   1.00
H70    H     0.55696   0.40411   0.22426   0.00000  Uiso   1.00
H71    H     0.40777   0.51884   0.01832   0.00000  Uiso   1.00
H72    H     0.66417   0.29196   0.26262   0.00000  Uiso   1.00
H73    H     0.56080   0.38974   0.35294   0.00000  Uiso   1.00
H74    H     0.30258   0.66452   0.85138   0.00000  Uiso   1.00
H75    H     0.84323   0.18613   0.36652   0.00000  Uiso   1.00
H76    H     0.62525   0.39231   0.55700   0.00000  Uiso   1.00
H77    H     0.02085   0.54659   0.69733   0.00000  Uiso   1.00
H78    H     0.89712   0.66915   0.51734   0.00000  Uiso   1.00
H79    H     0.15351   0.44227   0.76163   0.00000  Uiso   1.00
H80    H     0.05014   0.54005   0.85196   0.00000  Uiso   1.00
H81    H     0.69975   0.78652   0.25641   0.00000  Uiso   1.00
H82    H     0.24040   0.30812   0.77155   0.00000  Uiso   1.00
H83    H     0.02242   0.51431   0.96202   0.00000  Uiso   1.00
O84    O     0.41141   0.80356   0.92695   0.00000  Uiso   1.00
O85    O     0.12072   0.17592   0.60281   0.00000  Uiso   1.00
O86    O     0.83474   0.44644   0.85270   0.00000  Uiso   1.00
N87    N     0.41303   0.67642   0.97141   0.00000  Uiso   1.00
N88    N     0.91849   0.22916   0.45302   0.00000  Uiso   1.00
N89    N     0.71473   0.42191   0.63111   0.00000  Uiso   1.00
N90    N     0.62675   0.74207   0.18935   0.00000  Uiso   1.00
N91    N     0.13221   0.29480   0.67096   0.00000  Uiso   1.00
N92    N     0.92844   0.48755   0.84905   0.00000  Uiso   1.00
C93    C     0.66323   0.06325   0.83264   0.00000  Uiso   1.00
C94    C     0.64650   0.98115   0.78635   0.00000  Uiso   1.00
C95    C     0.51339   0.94869   0.62603   0.00000  Uiso   1.00
C96    C     0.52163   0.87272   0.60981   0.00000  Uiso   1.00
C97    C     0.47490   0.75164   0.51675   0.00000  Uiso   1.00
C98    C     0.78581   0.10441   0.91907   0.00000  Uiso   1.00
C99    C     0.76982   0.17560   0.87034   0.00000  Uiso   1.00
C100   C     0.89533   0.20340   0.96587   0.00000  Uiso   1.00
C101   C     0.06491   0.27372   0.07893   0.00000  Uiso   1.00
C102   C     0.72963   0.05128   0.96813   0.00000  Uiso   1.00
C103   C     0.66644   0.07781   0.96069   0.00000  Uiso   1.00
C104   C     0.74468   0.06089   0.09755   0.00000  Uiso   1.00
C105   C     0.82703   0.04871   0.28678   0.00000  Uiso   1.00
C106   C     0.91456   0.98605   0.08894   0.00000  Uiso   1.00
C107   C     0.78302   0.93922   0.92557   0.00000  Uiso   1.00
C108   C     0.79146   0.86328   0.90959   0.00000  Uiso   1.00
C109   C     0.65838   0.83072   0.74927   0.00000  Uiso   1.00
C110   C     0.92232   0.06249   0.05828   0.00000  Uiso   1.00
C111   C     0.04789   0.09019   0.15391   0.00000  Uiso   1.00
C112   C     0.03209   0.16140   0.10533   0.00000  Uiso   1.00
C113   C     0.86614   0.00935   0.10735   0.00000  Uiso   1.00
C114   C     0.94450   0.99239   0.24425   0.00000  Uiso   1.00
C115   C     0.88144   0.01889   0.23701   0.00000  Uiso   1.00
H116   H     0.55696   0.09589   0.72426   0.00000  Uiso   1.00
H117   H     0.40777   0.98116   0.51832   0.00000  Uiso   1.00
H118   H     0.66417   0.20804   0.76262   0.00000  Uiso   1.00
H119   H     0.56080   0.11026   0.85294   0.00000  Uiso   1.00
H120   H     0.30258   0.83548   0.35138   0.00000  Uiso   1.00
H121   H     0.84323   0.31387   0.86652   0.00000  Uiso   1.00
H122   H     0.62525   0.10769   0.05700   0.00000  Uiso   1.00
H123   H     0.02085   0.95341   0.19733   0.00000  Uiso   1.00
H124   H     0.89712   0.83085   0.01734   0.00000  Uiso   1.00
H125   H     0.15351   0.05773   0.26163   0.00000  Uiso   1.00
H126   H     0.05014   0.95995   0.35196   0.00000  Uiso   1.00
H127   H     0.69975   0.71348   0.75641   0.00000  Uiso   1.00
H128   H     0.24040   0.19188   0.27155   0.00000  Uiso   1.00
H129   H     0.02242   0.98569   0.46202   0.00000  Uiso   1.00
O130   O     0.41141   0.69644   0.42695   0.00000  Uiso   1.00
O131   O     0.12072   0.32408   0.10281   0.00000  Uiso   1.00
O132   O     0.83474   0.05356   0.35270   0.00000  Uiso   1.00
N133   N     0.41303   0.82358   0.47141   0.00000  Uiso   1.00
N134   N     0.91849   0.27084   0.95302   0.00000  Uiso   1.00
N135   N     0.71473   0.07809   0.13111   0.00000  Uiso   1.00
N136   N     0.62675   0.75793   0.68935   0.00000  Uiso   1.00
N137   N     0.13221   0.20520   0.17096   0.00000  Uiso   1.00
N138   N     0.92844   0.01245   0.34905   0.00000  Uiso   1.00
C139   C     0.33677   0.56325   0.66736   0.00000  Uiso   1.00
C140   C     0.35350   0.48115   0.71365   0.00000  Uiso   1.00
C141   C     0.48661   0.44869   0.87397   0.00000  Uiso   1.00
C142   C     0.47837   0.37272   0.89019   0.00000  Uiso   1.00
C143   C     0.52510   0.25164   0.98325   0.00000  Uiso   1.00
C144   C     0.21419   0.60441   0.58093   0.00000  Uiso   1.00
C145   C     0.23018   0.67560   0.62966   0.00000  Uiso   1.00
C146   C     0.10467   0.70340   0.53413   0.00000  Uiso   1.00
C147   C     0.93509   0.77372   0.42107   0.00000  Uiso   1.00
C148   C     0.27037   0.55128   0.53187   0.00000  Uiso   1.00
C149   C     0.33356   0.57781   0.53931   0.00000  Uiso   1.00
C150   C     0.25532   0.56089   0.40245   0.00000  Uiso   1.00
C151   C     0.17297   0.54871   0.21322   0.00000  Uiso   1.00
C152   C     0.08544   0.48605   0.41106   0.00000  Uiso   1.00
C153   C     0.21698   0.43922   0.57443   0.00000  Uiso   1.00
C154   C     0.20854   0.36328   0.59041   0.00000  Uiso   1.00
C155   C     0.34162   0.33072   0.75073   0.00000  Uiso   1.00
C156   C     0.07768   0.56249   0.44172   0.00000  Uiso   1.00
C157   C     0.95211   0.59019   0.34609   0.00000  Uiso   1.00
C158   C     0.96791   0.66140   0.39467   0.00000  Uiso   1.00
C159   C     0.13386   0.50935   0.39265   0.00000  Uiso   1.00
C160   C     0.05550   0.49239   0.25575   0.00000  Uiso   1.00
C161   C     0.11856   0.51889   0.26299   0.00000  Uiso   1.00
H162   H     0.44304   0.59589   0.77574   0.00000  Uiso   1.00
H163   H     0.59223   0.48116   0.98168   0.00000  Uiso   1.00
H164   H     0.33583   0.70804   0.73738   0.00000  Uiso   1.00
H165   H     0.43920   0.61026   0.64706   0.00000  Uiso   1.00
H166   H     0.69742   0.33548   0.14862   0.00000  Uiso   1.00
H167   H     0.15677   0.81387   0.63348   0.00000  Uiso   1.00
H168   H     0.37475   0.60769   0.44300   0.00000  Uiso   1.00
H169   H     0.97915   0.45341   0.30267   0.00000  Uiso   1.00
H170   H     0.10288   0.33085   0.48266   0.00000  Uiso   1.00
H171   H     0.84649   0.55773   0.23837   0.00000  Uiso   1.00
H172   H     0.94986   0.45995   0.14804   0.00000  Uiso   1.00
H173   H     0.30025   0.21348   0.74359   0.00000  Uiso   1.00
H174   H     0.75960   0.69188   0.22845   0.00000  Uiso   1.00
H175   H     0.97758   0.48569   0.03798   0.00000  Uiso   1.00
O176   O     0.58859   0.19644   0.07305   0.00000  Uiso   1.00
O177   O     0.87928   0.82408   0.39719   0.00000  Uiso   1.00
O178   O     0.16526   0.55356   0.14730   0.00000  Uiso   1.00
N179   N     0.58697   0.32358   0.02859   0.00000  Uiso   1.00
N180   N     0.08151   0.77084   0.54698   0.00000  Uiso   1.00
N181   N     0.28527   0.57809   0.36889   0.00000  Uiso   1.00
N182   N     0.37325   0.25793   0.81065   0.00000  Uiso   1.00
N183   N     0.86779   0.70520   0.32904   0.00000  Uiso   1.00
N184   N     0.07156   0.51245   0.15095   0.00000  Uiso   1.00
