data_job_05437
_audit_creation_date              2018-12-19
_audit_creation_method            'Materials Studio'
_symmetry_space_group_name_H-M    'P1'
_symmetry_Int_Tables_number       1
_symmetry_cell_setting            triclinic
loop_
_symmetry_equiv_pos_as_xyz
  x,y,z
_cell_length_a                    44.0155
_cell_length_b                    7.0897
_cell_length_c                    24.1091
_cell_angle_alpha                 90.0000
_cell_angle_beta                  90.0000
_cell_angle_gamma                 90.0000
loop_
_atom_site_label
_atom_site_type_symbol
_atom_site_fract_x
_atom_site_fract_y
_atom_site_fract_z
_atom_site_U_iso_or_equiv
_atom_site_adp_type
_atom_site_occupancy
C1     C     0.39796   0.73606   0.56074   0.00000  Uiso   1.00
C2     C     0.41903   0.79531   0.51364   0.00000  Uiso   1.00
C3     C     0.42760   0.68336   0.46909   0.00000  Uiso   1.00
C4     C     0.44705   0.76355   0.43038   0.00000  Uiso   1.00
C5     C     0.47819   0.82730   0.35641   0.00000  Uiso   1.00
C6     C     0.41583   0.76663   0.61417   0.00000  Uiso   1.00
C7     C     0.42170   0.63057   0.65415   0.00000  Uiso   1.00
C8     C     0.43846   0.68663   0.70007   0.00000  Uiso   1.00
C9     C     0.46460   0.70589   0.78219   0.00000  Uiso   1.00
C10    C     0.37226   0.88025   0.56157   0.00000  Uiso   1.00
C11    C     0.34150   0.83974   0.55733   0.00000  Uiso   1.00
C12    C     0.32157   0.99147   0.55898   0.00000  Uiso   1.00
C13    C     0.28007   0.18715   0.55943   0.00000  Uiso   1.00
C14    C     0.41727   0.07754   0.57121   0.00000  Uiso   1.00
C15    C     0.42952   0.98079   0.51934   0.00000  Uiso   1.00
C16    C     0.44896   0.06117   0.48068   0.00000  Uiso   1.00
C17    C     0.45756   0.94937   0.43608   0.00000  Uiso   1.00
C18    C     0.42632   0.95210   0.61987   0.00000  Uiso   1.00
C19    C     0.44307   0.00838   0.66574   0.00000  Uiso   1.00
C20    C     0.44897   0.87245   0.70577   0.00000  Uiso   1.00
C21    C     0.38275   0.06574   0.56726   0.00000  Uiso   1.00
C22    C     0.36286   0.21756   0.56892   0.00000  Uiso   1.00
C23    C     0.33208   0.17728   0.56468   0.00000  Uiso   1.00
H24    H     0.38979   0.59166   0.55631   0.00000  Uiso   1.00
H25    H     0.41948   0.53982   0.46471   0.00000  Uiso   1.00
H26    H     0.41358   0.48705   0.64974   0.00000  Uiso   1.00
H27    H     0.33339   0.69619   0.55293   0.00000  Uiso   1.00
H28    H     0.45702   0.56413   0.36567   0.00000  Uiso   1.00
H29    H     0.44458   0.45287   0.75582   0.00000  Uiso   1.00
H30    H     0.27548   0.89388   0.55169   0.00000  Uiso   1.00
H31    H     0.42544   0.22195   0.57564   0.00000  Uiso   1.00
H32    H     0.45708   0.20471   0.48510   0.00000  Uiso   1.00
H33    H     0.45118   0.15193   0.67013   0.00000  Uiso   1.00
H34    H     0.37099   0.36107   0.57332   0.00000  Uiso   1.00
H35    H     0.48754   0.10377   0.38222   0.00000  Uiso   1.00
H36    H     0.47510   0.99252   0.77238   0.00000  Uiso   1.00
H37    H     0.30600   0.43353   0.56824   0.00000  Uiso   1.00
O38    O     0.49246   0.81121   0.31404   0.00000  Uiso   1.00
O39    O     0.47613   0.66526   0.82591   0.00000  Uiso   1.00
O40    O     0.25428   0.24385   0.55809   0.00000  Uiso   1.00
N41    N     0.45986   0.69351   0.38198   0.00000  Uiso   1.00
N42    N     0.44823   0.58949   0.74675   0.00000  Uiso   1.00
N43    N     0.29013   0.00179   0.55592   0.00000  Uiso   1.00
N44    N     0.47628   0.98389   0.39089   0.00000  Uiso   1.00
N45    N     0.46465   0.87987   0.75566   0.00000  Uiso   1.00
N46    N     0.30655   0.29217   0.56482   0.00000  Uiso   1.00
C47    C     0.10204   0.26394   0.56074   0.00000  Uiso   1.00
C48    C     0.08097   0.20469   0.51364   0.00000  Uiso   1.00
C49    C     0.07240   0.31664   0.46909   0.00000  Uiso   1.00
C50    C     0.05295   0.23645   0.43038   0.00000  Uiso   1.00
C51    C     0.02181   0.17270   0.35641   0.00000  Uiso   1.00
C52    C     0.08417   0.23337   0.61417   0.00000  Uiso   1.00
C53    C     0.07830   0.36943   0.65415   0.00000  Uiso   1.00
C54    C     0.06154   0.31337   0.70007   0.00000  Uiso   1.00
C55    C     0.03540   0.29411   0.78219   0.00000  Uiso   1.00
C56    C     0.12774   0.11975   0.56157   0.00000  Uiso   1.00
C57    C     0.15850   0.16026   0.55733   0.00000  Uiso   1.00
C58    C     0.17843   0.00853   0.55898   0.00000  Uiso   1.00
C59    C     0.21993   0.81285   0.55943   0.00000  Uiso   1.00
C60    C     0.08273   0.92246   0.57121   0.00000  Uiso   1.00
C61    C     0.07048   0.01921   0.51934   0.00000  Uiso   1.00
C62    C     0.05104   0.93883   0.48068   0.00000  Uiso   1.00
C63    C     0.04244   0.05063   0.43608   0.00000  Uiso   1.00
C64    C     0.07368   0.04790   0.61987   0.00000  Uiso   1.00
C65    C     0.05693   0.99162   0.66574   0.00000  Uiso   1.00
C66    C     0.05103   0.12755   0.70577   0.00000  Uiso   1.00
C67    C     0.11725   0.93426   0.56726   0.00000  Uiso   1.00
C68    C     0.13714   0.78244   0.56892   0.00000  Uiso   1.00
C69    C     0.16792   0.82272   0.56468   0.00000  Uiso   1.00
H70    H     0.11021   0.40834   0.55631   0.00000  Uiso   1.00
H71    H     0.08052   0.46018   0.46471   0.00000  Uiso   1.00
H72    H     0.08642   0.51295   0.64974   0.00000  Uiso   1.00
H73    H     0.16661   0.30381   0.55293   0.00000  Uiso   1.00
H74    H     0.04298   0.43587   0.36567   0.00000  Uiso   1.00
H75    H     0.05542   0.54713   0.75582   0.00000  Uiso   1.00
H76    H     0.22452   0.10612   0.55169   0.00000  Uiso   1.00
H77    H     0.07456   0.77805   0.57564   0.00000  Uiso   1.00
H78    H     0.04292   0.79529   0.48510   0.00000  Uiso   1.00
H79    H     0.04882   0.84807   0.67013   0.00000  Uiso   1.00
H80    H     0.12901   0.63893   0.57332   0.00000  Uiso   1.00
H81    H     0.01246   0.89623   0.38222   0.00000  Uiso   1.00
H82    H     0.02490   0.00748   0.77238   0.00000  Uiso   1.00
H83    H     0.19400   0.56647   0.56824   0.00000  Uiso   1.00
O84    O     0.00754   0.18879   0.31404   0.00000  Uiso   1.00
O85    O     0.02387   0.33474   0.82591   0.00000  Uiso   1.00
O86    O     0.24572   0.75615   0.55809   0.00000  Uiso   1.00
N87    N     0.04014   0.30649   0.38198   0.00000  Uiso   1.00
N88    N     0.05177   0.41051   0.74675   0.00000  Uiso   1.00
N89    N     0.20987   0.99821   0.55592   0.00000  Uiso   1.00
N90    N     0.02372   0.01611   0.39089   0.00000  Uiso   1.00
N91    N     0.03535   0.12013   0.75566   0.00000  Uiso   1.00
N92    N     0.19345   0.70783   0.56482   0.00000  Uiso   1.00
C93    C     0.60204   0.73606   0.93926   0.00000  Uiso   1.00
C94    C     0.58097   0.79531   0.98636   0.00000  Uiso   1.00
C95    C     0.57240   0.68336   0.03091   0.00000  Uiso   1.00
C96    C     0.55295   0.76355   0.06962   0.00000  Uiso   1.00
C97    C     0.52181   0.82730   0.14359   0.00000  Uiso   1.00
C98    C     0.58417   0.76663   0.88583   0.00000  Uiso   1.00
C99    C     0.57830   0.63057   0.84585   0.00000  Uiso   1.00
C100   C     0.56154   0.68663   0.79993   0.00000  Uiso   1.00
C101   C     0.53540   0.70589   0.71781   0.00000  Uiso   1.00
C102   C     0.62774   0.88025   0.93843   0.00000  Uiso   1.00
C103   C     0.65850   0.83974   0.94267   0.00000  Uiso   1.00
C104   C     0.67843   0.99147   0.94102   0.00000  Uiso   1.00
C105   C     0.71993   0.18715   0.94057   0.00000  Uiso   1.00
C106   C     0.58273   0.07754   0.92879   0.00000  Uiso   1.00
C107   C     0.57048   0.98079   0.98066   0.00000  Uiso   1.00
C108   C     0.55104   0.06117   0.01932   0.00000  Uiso   1.00
C109   C     0.54244   0.94937   0.06392   0.00000  Uiso   1.00
C110   C     0.57368   0.95210   0.88013   0.00000  Uiso   1.00
C111   C     0.55693   0.00838   0.83426   0.00000  Uiso   1.00
C112   C     0.55103   0.87245   0.79423   0.00000  Uiso   1.00
C113   C     0.61725   0.06574   0.93274   0.00000  Uiso   1.00
C114   C     0.63714   0.21756   0.93108   0.00000  Uiso   1.00
C115   C     0.66792   0.17728   0.93532   0.00000  Uiso   1.00
H116   H     0.61021   0.59166   0.94369   0.00000  Uiso   1.00
H117   H     0.58052   0.53982   0.03529   0.00000  Uiso   1.00
H118   H     0.58642   0.48705   0.85026   0.00000  Uiso   1.00
H119   H     0.66661   0.69619   0.94707   0.00000  Uiso   1.00
H120   H     0.54298   0.56413   0.13433   0.00000  Uiso   1.00
H121   H     0.55542   0.45287   0.74418   0.00000  Uiso   1.00
H122   H     0.72452   0.89388   0.94831   0.00000  Uiso   1.00
H123   H     0.57456   0.22195   0.92436   0.00000  Uiso   1.00
H124   H     0.54292   0.20471   0.01490   0.00000  Uiso   1.00
H125   H     0.54882   0.15193   0.82987   0.00000  Uiso   1.00
H126   H     0.62901   0.36107   0.92668   0.00000  Uiso   1.00
H127   H     0.51246   0.10377   0.11778   0.00000  Uiso   1.00
H128   H     0.52490   0.99252   0.72762   0.00000  Uiso   1.00
H129   H     0.69400   0.43353   0.93176   0.00000  Uiso   1.00
O130   O     0.50754   0.81121   0.18596   0.00000  Uiso   1.00
O131   O     0.52387   0.66526   0.67409   0.00000  Uiso   1.00
O132   O     0.74572   0.24385   0.94191   0.00000  Uiso   1.00
N133   N     0.54014   0.69351   0.11802   0.00000  Uiso   1.00
N134   N     0.55177   0.58949   0.75325   0.00000  Uiso   1.00
N135   N     0.70987   0.00179   0.94408   0.00000  Uiso   1.00
N136   N     0.52372   0.98389   0.10911   0.00000  Uiso   1.00
N137   N     0.53535   0.87987   0.74434   0.00000  Uiso   1.00
N138   N     0.69345   0.29217   0.93518   0.00000  Uiso   1.00
C139   C     0.89796   0.26394   0.93926   0.00000  Uiso   1.00
C140   C     0.91903   0.20469   0.98636   0.00000  Uiso   1.00
C141   C     0.92760   0.31664   0.03091   0.00000  Uiso   1.00
C142   C     0.94705   0.23645   0.06962   0.00000  Uiso   1.00
C143   C     0.97819   0.17270   0.14359   0.00000  Uiso   1.00
C144   C     0.91583   0.23337   0.88583   0.00000  Uiso   1.00
C145   C     0.92170   0.36943   0.84585   0.00000  Uiso   1.00
C146   C     0.93846   0.31337   0.79993   0.00000  Uiso   1.00
C147   C     0.96460   0.29411   0.71781   0.00000  Uiso   1.00
C148   C     0.87226   0.11975   0.93843   0.00000  Uiso   1.00
C149   C     0.84150   0.16026   0.94267   0.00000  Uiso   1.00
C150   C     0.82157   0.00853   0.94102   0.00000  Uiso   1.00
C151   C     0.78007   0.81285   0.94057   0.00000  Uiso   1.00
C152   C     0.91727   0.92246   0.92879   0.00000  Uiso   1.00
C153   C     0.92952   0.01921   0.98066   0.00000  Uiso   1.00
C154   C     0.94896   0.93883   0.01932   0.00000  Uiso   1.00
C155   C     0.95756   0.05063   0.06392   0.00000  Uiso   1.00
C156   C     0.92632   0.04790   0.88013   0.00000  Uiso   1.00
C157   C     0.94307   0.99162   0.83426   0.00000  Uiso   1.00
C158   C     0.94897   0.12755   0.79423   0.00000  Uiso   1.00
C159   C     0.88275   0.93426   0.93274   0.00000  Uiso   1.00
C160   C     0.86286   0.78244   0.93108   0.00000  Uiso   1.00
C161   C     0.83208   0.82272   0.93532   0.00000  Uiso   1.00
H162   H     0.88979   0.40834   0.94369   0.00000  Uiso   1.00
H163   H     0.91948   0.46018   0.03529   0.00000  Uiso   1.00
H164   H     0.91358   0.51295   0.85026   0.00000  Uiso   1.00
H165   H     0.83339   0.30381   0.94707   0.00000  Uiso   1.00
H166   H     0.95702   0.43587   0.13433   0.00000  Uiso   1.00
H167   H     0.94458   0.54713   0.74418   0.00000  Uiso   1.00
H168   H     0.77548   0.10612   0.94831   0.00000  Uiso   1.00
H169   H     0.92544   0.77805   0.92436   0.00000  Uiso   1.00
H170   H     0.95708   0.79529   0.01490   0.00000  Uiso   1.00
H171   H     0.95118   0.84807   0.82987   0.00000  Uiso   1.00
H172   H     0.87099   0.63893   0.92668   0.00000  Uiso   1.00
H173   H     0.98754   0.89623   0.11778   0.00000  Uiso   1.00
H174   H     0.97510   0.00748   0.72762   0.00000  Uiso   1.00
H175   H     0.80600   0.56647   0.93176   0.00000  Uiso   1.00
O176   O     0.99246   0.18879   0.18596   0.00000  Uiso   1.00
O177   O     0.97613   0.33474   0.67409   0.00000  Uiso   1.00
O178   O     0.75428   0.75615   0.94191   0.00000  Uiso   1.00
N179   N     0.95986   0.30649   0.11802   0.00000  Uiso   1.00
N180   N     0.94823   0.41051   0.75325   0.00000  Uiso   1.00
N181   N     0.79013   0.99821   0.94408   0.00000  Uiso   1.00
N182   N     0.97628   0.01611   0.10911   0.00000  Uiso   1.00
N183   N     0.96465   0.12013   0.74434   0.00000  Uiso   1.00
N184   N     0.80655   0.70783   0.93518   0.00000  Uiso   1.00
C185   C     0.60204   0.26394   0.43926   0.00000  Uiso   1.00
C186   C     0.58097   0.20469   0.48636   0.00000  Uiso   1.00
C187   C     0.57240   0.31664   0.53091   0.00000  Uiso   1.00
C188   C     0.55295   0.23645   0.56962   0.00000  Uiso   1.00
C189   C     0.52181   0.17270   0.64359   0.00000  Uiso   1.00
C190   C     0.58417   0.23337   0.38583   0.00000  Uiso   1.00
C191   C     0.57830   0.36943   0.34585   0.00000  Uiso   1.00
C192   C     0.56154   0.31337   0.29993   0.00000  Uiso   1.00
C193   C     0.53540   0.29411   0.21781   0.00000  Uiso   1.00
C194   C     0.62774   0.11975   0.43843   0.00000  Uiso   1.00
C195   C     0.65850   0.16026   0.44267   0.00000  Uiso   1.00
C196   C     0.67843   0.00853   0.44102   0.00000  Uiso   1.00
C197   C     0.71993   0.81285   0.44057   0.00000  Uiso   1.00
C198   C     0.58273   0.92246   0.42879   0.00000  Uiso   1.00
C199   C     0.57048   0.01921   0.48066   0.00000  Uiso   1.00
C200   C     0.55104   0.93883   0.51932   0.00000  Uiso   1.00
C201   C     0.54244   0.05063   0.56392   0.00000  Uiso   1.00
C202   C     0.57368   0.04790   0.38013   0.00000  Uiso   1.00
C203   C     0.55693   0.99162   0.33426   0.00000  Uiso   1.00
C204   C     0.55103   0.12755   0.29423   0.00000  Uiso   1.00
C205   C     0.61725   0.93426   0.43274   0.00000  Uiso   1.00
C206   C     0.63714   0.78244   0.43108   0.00000  Uiso   1.00
C207   C     0.66792   0.82272   0.43532   0.00000  Uiso   1.00
H208   H     0.61021   0.40834   0.44369   0.00000  Uiso   1.00
H209   H     0.58052   0.46018   0.53529   0.00000  Uiso   1.00
H210   H     0.58642   0.51295   0.35026   0.00000  Uiso   1.00
H211   H     0.66661   0.30381   0.44707   0.00000  Uiso   1.00
H212   H     0.54298   0.43587   0.63433   0.00000  Uiso   1.00
H213   H     0.55542   0.54713   0.24418   0.00000  Uiso   1.00
H214   H     0.72452   0.10612   0.44831   0.00000  Uiso   1.00
H215   H     0.57456   0.77805   0.42436   0.00000  Uiso   1.00
H216   H     0.54292   0.79529   0.51490   0.00000  Uiso   1.00
H217   H     0.54882   0.84807   0.32987   0.00000  Uiso   1.00
H218   H     0.62901   0.63893   0.42668   0.00000  Uiso   1.00
H219   H     0.51246   0.89623   0.61778   0.00000  Uiso   1.00
H220   H     0.52490   0.00748   0.22762   0.00000  Uiso   1.00
H221   H     0.69400   0.56647   0.43176   0.00000  Uiso   1.00
O222   O     0.50754   0.18879   0.68596   0.00000  Uiso   1.00
O223   O     0.52387   0.33474   0.17409   0.00000  Uiso   1.00
O224   O     0.74572   0.75615   0.44191   0.00000  Uiso   1.00
N225   N     0.54014   0.30649   0.61802   0.00000  Uiso   1.00
N226   N     0.55177   0.41051   0.25325   0.00000  Uiso   1.00
N227   N     0.70987   0.99821   0.44408   0.00000  Uiso   1.00
N228   N     0.52372   0.01611   0.60911   0.00000  Uiso   1.00
N229   N     0.53535   0.12013   0.24434   0.00000  Uiso   1.00
N230   N     0.69345   0.70783   0.43518   0.00000  Uiso   1.00
C231   C     0.89796   0.73606   0.43926   0.00000  Uiso   1.00
C232   C     0.91903   0.79531   0.48636   0.00000  Uiso   1.00
C233   C     0.92760   0.68336   0.53091   0.00000  Uiso   1.00
C234   C     0.94705   0.76355   0.56962   0.00000  Uiso   1.00
C235   C     0.97819   0.82730   0.64359   0.00000  Uiso   1.00
C236   C     0.91583   0.76663   0.38583   0.00000  Uiso   1.00
C237   C     0.92170   0.63057   0.34585   0.00000  Uiso   1.00
C238   C     0.93846   0.68663   0.29993   0.00000  Uiso   1.00
C239   C     0.96460   0.70589   0.21781   0.00000  Uiso   1.00
C240   C     0.87226   0.88025   0.43843   0.00000  Uiso   1.00
C241   C     0.84150   0.83974   0.44267   0.00000  Uiso   1.00
C242   C     0.82157   0.99147   0.44102   0.00000  Uiso   1.00
C243   C     0.78007   0.18715   0.44057   0.00000  Uiso   1.00
C244   C     0.91727   0.07754   0.42879   0.00000  Uiso   1.00
C245   C     0.92952   0.98079   0.48066   0.00000  Uiso   1.00
C246   C     0.94896   0.06117   0.51932   0.00000  Uiso   1.00
C247   C     0.95756   0.94937   0.56392   0.00000  Uiso   1.00
C248   C     0.92632   0.95210   0.38013   0.00000  Uiso   1.00
C249   C     0.94307   0.00838   0.33426   0.00000  Uiso   1.00
C250   C     0.94897   0.87245   0.29423   0.00000  Uiso   1.00
C251   C     0.88275   0.06574   0.43274   0.00000  Uiso   1.00
C252   C     0.86286   0.21756   0.43108   0.00000  Uiso   1.00
C253   C     0.83208   0.17728   0.43532   0.00000  Uiso   1.00
H254   H     0.88979   0.59166   0.44369   0.00000  Uiso   1.00
H255   H     0.91948   0.53982   0.53529   0.00000  Uiso   1.00
H256   H     0.91358   0.48705   0.35026   0.00000  Uiso   1.00
H257   H     0.83339   0.69619   0.44707   0.00000  Uiso   1.00
H258   H     0.95702   0.56413   0.63433   0.00000  Uiso   1.00
H259   H     0.94458   0.45287   0.24418   0.00000  Uiso   1.00
H260   H     0.77548   0.89388   0.44831   0.00000  Uiso   1.00
H261   H     0.92544   0.22195   0.42436   0.00000  Uiso   1.00
H262   H     0.95708   0.20471   0.51490   0.00000  Uiso   1.00
H263   H     0.95118   0.15193   0.32987   0.00000  Uiso   1.00
H264   H     0.87099   0.36107   0.42668   0.00000  Uiso   1.00
H265   H     0.98754   0.10377   0.61778   0.00000  Uiso   1.00
H266   H     0.97510   0.99252   0.22762   0.00000  Uiso   1.00
H267   H     0.80600   0.43353   0.43176   0.00000  Uiso   1.00
O268   O     0.99246   0.81121   0.68596   0.00000  Uiso   1.00
O269   O     0.97613   0.66526   0.17409   0.00000  Uiso   1.00
O270   O     0.75428   0.24385   0.44191   0.00000  Uiso   1.00
N271   N     0.95986   0.69351   0.61802   0.00000  Uiso   1.00
N272   N     0.94823   0.58949   0.25325   0.00000  Uiso   1.00
N273   N     0.79013   0.00179   0.44408   0.00000  Uiso   1.00
N274   N     0.97628   0.98389   0.60911   0.00000  Uiso   1.00
N275   N     0.96465   0.87987   0.24434   0.00000  Uiso   1.00
N276   N     0.80655   0.29217   0.43518   0.00000  Uiso   1.00
C277   C     0.39796   0.26394   0.06074   0.00000  Uiso   1.00
C278   C     0.41903   0.20469   0.01364   0.00000  Uiso   1.00
C279   C     0.42760   0.31664   0.96909   0.00000  Uiso   1.00
C280   C     0.44705   0.23645   0.93038   0.00000  Uiso   1.00
C281   C     0.47819   0.17270   0.85641   0.00000  Uiso   1.00
C282   C     0.41583   0.23337   0.11417   0.00000  Uiso   1.00
C283   C     0.42170   0.36943   0.15415   0.00000  Uiso   1.00
C284   C     0.43846   0.31337   0.20007   0.00000  Uiso   1.00
C285   C     0.46460   0.29411   0.28219   0.00000  Uiso   1.00
C286   C     0.37226   0.11975   0.06157   0.00000  Uiso   1.00
C287   C     0.34150   0.16026   0.05733   0.00000  Uiso   1.00
C288   C     0.32157   0.00853   0.05898   0.00000  Uiso   1.00
C289   C     0.28007   0.81285   0.05943   0.00000  Uiso   1.00
C290   C     0.41727   0.92246   0.07121   0.00000  Uiso   1.00
C291   C     0.42952   0.01921   0.01934   0.00000  Uiso   1.00
C292   C     0.44896   0.93883   0.98068   0.00000  Uiso   1.00
C293   C     0.45756   0.05063   0.93608   0.00000  Uiso   1.00
C294   C     0.42632   0.04790   0.11987   0.00000  Uiso   1.00
C295   C     0.44307   0.99162   0.16574   0.00000  Uiso   1.00
C296   C     0.44897   0.12755   0.20577   0.00000  Uiso   1.00
C297   C     0.38275   0.93426   0.06726   0.00000  Uiso   1.00
C298   C     0.36286   0.78244   0.06892   0.00000  Uiso   1.00
C299   C     0.33208   0.82272   0.06468   0.00000  Uiso   1.00
H300   H     0.38979   0.40834   0.05631   0.00000  Uiso   1.00
H301   H     0.41948   0.46018   0.96471   0.00000  Uiso   1.00
H302   H     0.41358   0.51295   0.14974   0.00000  Uiso   1.00
H303   H     0.33339   0.30381   0.05293   0.00000  Uiso   1.00
H304   H     0.45702   0.43587   0.86567   0.00000  Uiso   1.00
H305   H     0.44458   0.54713   0.25582   0.00000  Uiso   1.00
H306   H     0.27548   0.10612   0.05169   0.00000  Uiso   1.00
H307   H     0.42544   0.77805   0.07564   0.00000  Uiso   1.00
H308   H     0.45708   0.79529   0.98510   0.00000  Uiso   1.00
H309   H     0.45118   0.84807   0.17013   0.00000  Uiso   1.00
H310   H     0.37099   0.63893   0.07332   0.00000  Uiso   1.00
H311   H     0.48754   0.89623   0.88222   0.00000  Uiso   1.00
H312   H     0.47510   0.00748   0.27238   0.00000  Uiso   1.00
H313   H     0.30600   0.56647   0.06824   0.00000  Uiso   1.00
O314   O     0.49246   0.18879   0.81404   0.00000  Uiso   1.00
O315   O     0.47613   0.33474   0.32591   0.00000  Uiso   1.00
O316   O     0.25428   0.75615   0.05809   0.00000  Uiso   1.00
N317   N     0.45986   0.30649   0.88198   0.00000  Uiso   1.00
N318   N     0.44823   0.41051   0.24675   0.00000  Uiso   1.00
N319   N     0.29013   0.99821   0.05592   0.00000  Uiso   1.00
N320   N     0.47628   0.01611   0.89089   0.00000  Uiso   1.00
N321   N     0.46465   0.12013   0.25566   0.00000  Uiso   1.00
N322   N     0.30655   0.70783   0.06482   0.00000  Uiso   1.00
C323   C     0.10204   0.73606   0.06074   0.00000  Uiso   1.00
C324   C     0.08097   0.79531   0.01364   0.00000  Uiso   1.00
C325   C     0.07240   0.68336   0.96909   0.00000  Uiso   1.00
C326   C     0.05295   0.76355   0.93038   0.00000  Uiso   1.00
C327   C     0.02181   0.82730   0.85641   0.00000  Uiso   1.00
C328   C     0.08417   0.76663   0.11417   0.00000  Uiso   1.00
C329   C     0.07830   0.63057   0.15415   0.00000  Uiso   1.00
C330   C     0.06154   0.68663   0.20007   0.00000  Uiso   1.00
C331   C     0.03540   0.70589   0.28219   0.00000  Uiso   1.00
C332   C     0.12774   0.88025   0.06157   0.00000  Uiso   1.00
C333   C     0.15850   0.83974   0.05733   0.00000  Uiso   1.00
C334   C     0.17843   0.99147   0.05898   0.00000  Uiso   1.00
C335   C     0.21993   0.18715   0.05943   0.00000  Uiso   1.00
C336   C     0.08273   0.07754   0.07121   0.00000  Uiso   1.00
C337   C     0.07048   0.98079   0.01934   0.00000  Uiso   1.00
C338   C     0.05104   0.06117   0.98068   0.00000  Uiso   1.00
C339   C     0.04244   0.94937   0.93608   0.00000  Uiso   1.00
C340   C     0.07368   0.95210   0.11987   0.00000  Uiso   1.00
C341   C     0.05693   0.00838   0.16574   0.00000  Uiso   1.00
C342   C     0.05103   0.87245   0.20577   0.00000  Uiso   1.00
C343   C     0.11725   0.06574   0.06726   0.00000  Uiso   1.00
C344   C     0.13714   0.21756   0.06892   0.00000  Uiso   1.00
C345   C     0.16792   0.17728   0.06468   0.00000  Uiso   1.00
H346   H     0.11021   0.59166   0.05631   0.00000  Uiso   1.00
H347   H     0.08052   0.53982   0.96471   0.00000  Uiso   1.00
H348   H     0.08642   0.48705   0.14974   0.00000  Uiso   1.00
H349   H     0.16661   0.69619   0.05293   0.00000  Uiso   1.00
H350   H     0.04298   0.56413   0.86567   0.00000  Uiso   1.00
H351   H     0.05542   0.45287   0.25582   0.00000  Uiso   1.00
H352   H     0.22452   0.89388   0.05169   0.00000  Uiso   1.00
H353   H     0.07456   0.22195   0.07564   0.00000  Uiso   1.00
H354   H     0.04292   0.20471   0.98510   0.00000  Uiso   1.00
H355   H     0.04882   0.15193   0.17013   0.00000  Uiso   1.00
H356   H     0.12901   0.36107   0.07332   0.00000  Uiso   1.00
H357   H     0.01246   0.10377   0.88222   0.00000  Uiso   1.00
H358   H     0.02490   0.99252   0.27238   0.00000  Uiso   1.00
H359   H     0.19400   0.43353   0.06824   0.00000  Uiso   1.00
O360   O     0.00754   0.81121   0.81404   0.00000  Uiso   1.00
O361   O     0.02387   0.66526   0.32591   0.00000  Uiso   1.00
O362   O     0.24572   0.24385   0.05809   0.00000  Uiso   1.00
N363   N     0.04014   0.69351   0.88198   0.00000  Uiso   1.00
N364   N     0.05177   0.58949   0.24675   0.00000  Uiso   1.00
N365   N     0.20987   0.00179   0.05592   0.00000  Uiso   1.00
N366   N     0.02372   0.98389   0.89089   0.00000  Uiso   1.00
N367   N     0.03535   0.87987   0.25566   0.00000  Uiso   1.00
N368   N     0.19345   0.29217   0.06482   0.00000  Uiso   1.00
