data_job_03162
_audit_creation_date              2018-12-19
_audit_creation_method            'Materials Studio'
_symmetry_space_group_name_H-M    'P1'
_symmetry_Int_Tables_number       1
_symmetry_cell_setting            triclinic
loop_
_symmetry_equiv_pos_as_xyz
  x,y,z
_cell_length_a                    22.9817
_cell_length_b                    26.0713
_cell_length_c                    12.1439
_cell_angle_alpha                 90.0000
_cell_angle_beta                  90.0000
_cell_angle_gamma                 90.0000
loop_
_atom_site_label
_atom_site_type_symbol
_atom_site_fract_x
_atom_site_fract_y
_atom_site_fract_z
_atom_site_U_iso_or_equiv
_atom_site_adp_type
_atom_site_occupancy
C1     C     0.06294   0.62201   0.98201   0.00000  Uiso   1.00
C2     C     0.03740   0.61907   0.86628   0.00000  Uiso   1.00
C3     C     0.03750   0.57611   0.79881   0.00000  Uiso   1.00
C4     C     0.01197   0.58123   0.69579   0.00000  Uiso   1.00
C5     C     0.97609   0.56960   0.52128   0.00000  Uiso   1.00
C6     C     0.10674   0.66594   0.97987   0.00000  Uiso   1.00
C7     C     0.16515   0.66238   0.00792   0.00000  Uiso   1.00
C8     C     0.19798   0.70696   0.00053   0.00000  Uiso   1.00
C9     C     0.26975   0.76811   0.00245   0.00000  Uiso   1.00
C10    C     0.01348   0.63961   0.05669   0.00000  Uiso   1.00
C11    C     0.99348   0.61393   0.14936   0.00000  Uiso   1.00
C12    C     0.94780   0.63634   0.20666   0.00000  Uiso   1.00
C13    C     0.87477   0.65661   0.32786   0.00000  Uiso   1.00
C14    C     0.01740   0.70750   0.91902   0.00000  Uiso   1.00
C15    C     0.01267   0.66551   0.83207   0.00000  Uiso   1.00
C16    C     0.98712   0.67069   0.72912   0.00000  Uiso   1.00
C17    C     0.98718   0.62774   0.66151   0.00000  Uiso   1.00
C18    C     0.08201   0.71237   0.94566   0.00000  Uiso   1.00
C19    C     0.11476   0.75696   0.93823   0.00000  Uiso   1.00
C20    C     0.17320   0.75347   0.96625   0.00000  Uiso   1.00
C21    C     0.98874   0.68604   0.02248   0.00000  Uiso   1.00
C22    C     0.94309   0.70851   0.07966   0.00000  Uiso   1.00
C23    C     0.92302   0.68286   0.17239   0.00000  Uiso   1.00
H24    H     0.08221   0.58587   0.00864   0.00000  Uiso   1.00
H25    H     0.05666   0.54019   0.82532   0.00000  Uiso   1.00
H26    H     0.18428   0.62645   0.03440   0.00000  Uiso   1.00
H27    H     0.01264   0.57800   0.17581   0.00000  Uiso   1.00
H28    H     0.01744   0.51002   0.60696   0.00000  Uiso   1.00
H29    H     0.28653   0.69191   0.04787   0.00000  Uiso   1.00
H30    H     0.92459   0.58975   0.34606   0.00000  Uiso   1.00
H31    H     0.99814   0.74365   0.89238   0.00000  Uiso   1.00
H32    H     0.96798   0.70662   0.70267   0.00000  Uiso   1.00
H33    H     0.09560   0.79289   0.91176   0.00000  Uiso   1.00
H34    H     0.92396   0.74444   0.05316   0.00000  Uiso   1.00
H35    H     0.94547   0.64511   0.50741   0.00000  Uiso   1.00
H36    H     0.21456   0.82700   0.94833   0.00000  Uiso   1.00
H37    H     0.85262   0.72484   0.24651   0.00000  Uiso   1.00
O38    O     0.96315   0.55037   0.43448   0.00000  Uiso   1.00
O39    O     0.31617   0.78901   0.01295   0.00000  Uiso   1.00
O40    O     0.84132   0.65496   0.40416   0.00000  Uiso   1.00
N41    N     0.00463   0.54689   0.60958   0.00000  Uiso   1.00
N42    N     0.25621   0.71695   0.02178   0.00000  Uiso   1.00
N43    N     0.91784   0.62144   0.30058   0.00000  Uiso   1.00
N44    N     0.96590   0.61958   0.55601   0.00000  Uiso   1.00
N45    N     0.21749   0.78964   0.96822   0.00000  Uiso   1.00
N46    N     0.87911   0.69413   0.24701   0.00000  Uiso   1.00
C47    C     0.43706   0.37799   0.48201   0.00000  Uiso   1.00
C48    C     0.46260   0.38093   0.36628   0.00000  Uiso   1.00
C49    C     0.46250   0.42389   0.29881   0.00000  Uiso   1.00
C50    C     0.48803   0.41877   0.19579   0.00000  Uiso   1.00
C51    C     0.52391   0.43040   0.02128   0.00000  Uiso   1.00
C52    C     0.39326   0.33406   0.47987   0.00000  Uiso   1.00
C53    C     0.33485   0.33762   0.50792   0.00000  Uiso   1.00
C54    C     0.30202   0.29304   0.50053   0.00000  Uiso   1.00
C55    C     0.23025   0.23189   0.50245   0.00000  Uiso   1.00
C56    C     0.48652   0.36039   0.55669   0.00000  Uiso   1.00
C57    C     0.50652   0.38607   0.64936   0.00000  Uiso   1.00
C58    C     0.55220   0.36366   0.70666   0.00000  Uiso   1.00
C59    C     0.62523   0.34339   0.82786   0.00000  Uiso   1.00
C60    C     0.48260   0.29250   0.41902   0.00000  Uiso   1.00
C61    C     0.48733   0.33449   0.33207   0.00000  Uiso   1.00
C62    C     0.51288   0.32931   0.22912   0.00000  Uiso   1.00
C63    C     0.51282   0.37226   0.16151   0.00000  Uiso   1.00
C64    C     0.41799   0.28763   0.44566   0.00000  Uiso   1.00
C65    C     0.38524   0.24304   0.43823   0.00000  Uiso   1.00
C66    C     0.32680   0.24653   0.46625   0.00000  Uiso   1.00
C67    C     0.51126   0.31396   0.52248   0.00000  Uiso   1.00
C68    C     0.55691   0.29149   0.57966   0.00000  Uiso   1.00
C69    C     0.57698   0.31714   0.67239   0.00000  Uiso   1.00
H70    H     0.41779   0.41413   0.50864   0.00000  Uiso   1.00
H71    H     0.44334   0.45981   0.32532   0.00000  Uiso   1.00
H72    H     0.31572   0.37355   0.53440   0.00000  Uiso   1.00
H73    H     0.48736   0.42200   0.67581   0.00000  Uiso   1.00
H74    H     0.48256   0.48998   0.10696   0.00000  Uiso   1.00
H75    H     0.21347   0.30809   0.54787   0.00000  Uiso   1.00
H76    H     0.57541   0.41025   0.84606   0.00000  Uiso   1.00
H77    H     0.50186   0.25635   0.39238   0.00000  Uiso   1.00
H78    H     0.53202   0.29338   0.20267   0.00000  Uiso   1.00
H79    H     0.40440   0.20711   0.41176   0.00000  Uiso   1.00
H80    H     0.57604   0.25556   0.55316   0.00000  Uiso   1.00
H81    H     0.55453   0.35489   0.00741   0.00000  Uiso   1.00
H82    H     0.28544   0.17300   0.44833   0.00000  Uiso   1.00
H83    H     0.64738   0.27516   0.74651   0.00000  Uiso   1.00
O84    O     0.53685   0.44963   0.93448   0.00000  Uiso   1.00
O85    O     0.18383   0.21099   0.51295   0.00000  Uiso   1.00
O86    O     0.65868   0.34504   0.90416   0.00000  Uiso   1.00
N87    N     0.49537   0.45311   0.10958   0.00000  Uiso   1.00
N88    N     0.24379   0.28305   0.52178   0.00000  Uiso   1.00
N89    N     0.58216   0.37856   0.80058   0.00000  Uiso   1.00
N90    N     0.53410   0.38042   0.05601   0.00000  Uiso   1.00
N91    N     0.28251   0.21036   0.46822   0.00000  Uiso   1.00
N92    N     0.62089   0.30587   0.74701   0.00000  Uiso   1.00
C93    C     0.93706   0.12201   0.51799   0.00000  Uiso   1.00
C94    C     0.96260   0.11907   0.63372   0.00000  Uiso   1.00
C95    C     0.96250   0.07611   0.70119   0.00000  Uiso   1.00
C96    C     0.98803   0.08123   0.80421   0.00000  Uiso   1.00
C97    C     0.02391   0.06960   0.97872   0.00000  Uiso   1.00
C98    C     0.89326   0.16594   0.52013   0.00000  Uiso   1.00
C99    C     0.83485   0.16238   0.49208   0.00000  Uiso   1.00
C100   C     0.80202   0.20696   0.49947   0.00000  Uiso   1.00
C101   C     0.73025   0.26811   0.49755   0.00000  Uiso   1.00
C102   C     0.98652   0.13961   0.44331   0.00000  Uiso   1.00
C103   C     0.00652   0.11393   0.35064   0.00000  Uiso   1.00
C104   C     0.05220   0.13634   0.29334   0.00000  Uiso   1.00
C105   C     0.12523   0.15661   0.17214   0.00000  Uiso   1.00
C106   C     0.98260   0.20750   0.58098   0.00000  Uiso   1.00
C107   C     0.98733   0.16551   0.66793   0.00000  Uiso   1.00
C108   C     0.01288   0.17069   0.77088   0.00000  Uiso   1.00
C109   C     0.01282   0.12774   0.83849   0.00000  Uiso   1.00
C110   C     0.91799   0.21237   0.55434   0.00000  Uiso   1.00
C111   C     0.88524   0.25696   0.56177   0.00000  Uiso   1.00
C112   C     0.82680   0.25347   0.53375   0.00000  Uiso   1.00
C113   C     0.01126   0.18604   0.47752   0.00000  Uiso   1.00
C114   C     0.05691   0.20851   0.42034   0.00000  Uiso   1.00
C115   C     0.07698   0.18286   0.32761   0.00000  Uiso   1.00
H116   H     0.91779   0.08587   0.49136   0.00000  Uiso   1.00
H117   H     0.94334   0.04019   0.67468   0.00000  Uiso   1.00
H118   H     0.81572   0.12645   0.46560   0.00000  Uiso   1.00
H119   H     0.98736   0.07800   0.32419   0.00000  Uiso   1.00
H120   H     0.98256   0.01002   0.89304   0.00000  Uiso   1.00
H121   H     0.71347   0.19191   0.45213   0.00000  Uiso   1.00
H122   H     0.07541   0.08975   0.15394   0.00000  Uiso   1.00
H123   H     0.00186   0.24365   0.60762   0.00000  Uiso   1.00
H124   H     0.03202   0.20662   0.79733   0.00000  Uiso   1.00
H125   H     0.90440   0.29289   0.58824   0.00000  Uiso   1.00
H126   H     0.07604   0.24444   0.44684   0.00000  Uiso   1.00
H127   H     0.05453   0.14511   0.99259   0.00000  Uiso   1.00
H128   H     0.78544   0.32700   0.55167   0.00000  Uiso   1.00
H129   H     0.14738   0.22484   0.25349   0.00000  Uiso   1.00
O130   O     0.03685   0.05037   0.06552   0.00000  Uiso   1.00
O131   O     0.68383   0.28901   0.48705   0.00000  Uiso   1.00
O132   O     0.15868   0.15496   0.09584   0.00000  Uiso   1.00
N133   N     0.99537   0.04689   0.89042   0.00000  Uiso   1.00
N134   N     0.74379   0.21695   0.47822   0.00000  Uiso   1.00
N135   N     0.08216   0.12144   0.19942   0.00000  Uiso   1.00
N136   N     0.03410   0.11958   0.94399   0.00000  Uiso   1.00
N137   N     0.78251   0.28964   0.53178   0.00000  Uiso   1.00
N138   N     0.12089   0.19413   0.25299   0.00000  Uiso   1.00
C139   C     0.56294   0.87799   0.01799   0.00000  Uiso   1.00
C140   C     0.53740   0.88093   0.13372   0.00000  Uiso   1.00
C141   C     0.53750   0.92389   0.20119   0.00000  Uiso   1.00
C142   C     0.51197   0.91877   0.30421   0.00000  Uiso   1.00
C143   C     0.47609   0.93040   0.47872   0.00000  Uiso   1.00
C144   C     0.60674   0.83406   0.02013   0.00000  Uiso   1.00
C145   C     0.66515   0.83762   0.99208   0.00000  Uiso   1.00
C146   C     0.69798   0.79304   0.99947   0.00000  Uiso   1.00
C147   C     0.76975   0.73189   0.99755   0.00000  Uiso   1.00
C148   C     0.51348   0.86039   0.94331   0.00000  Uiso   1.00
C149   C     0.49348   0.88607   0.85064   0.00000  Uiso   1.00
C150   C     0.44780   0.86366   0.79334   0.00000  Uiso   1.00
C151   C     0.37477   0.84339   0.67214   0.00000  Uiso   1.00
C152   C     0.51740   0.79250   0.08098   0.00000  Uiso   1.00
C153   C     0.51267   0.83449   0.16793   0.00000  Uiso   1.00
C154   C     0.48712   0.82931   0.27088   0.00000  Uiso   1.00
C155   C     0.48718   0.87226   0.33849   0.00000  Uiso   1.00
C156   C     0.58201   0.78763   0.05434   0.00000  Uiso   1.00
C157   C     0.61476   0.74304   0.06177   0.00000  Uiso   1.00
C158   C     0.67320   0.74653   0.03375   0.00000  Uiso   1.00
C159   C     0.48874   0.81396   0.97752   0.00000  Uiso   1.00
C160   C     0.44309   0.79149   0.92034   0.00000  Uiso   1.00
C161   C     0.42302   0.81714   0.82761   0.00000  Uiso   1.00
H162   H     0.58221   0.91413   0.99136   0.00000  Uiso   1.00
H163   H     0.55666   0.95981   0.17468   0.00000  Uiso   1.00
H164   H     0.68428   0.87355   0.96560   0.00000  Uiso   1.00
H165   H     0.51264   0.92200   0.82419   0.00000  Uiso   1.00
H166   H     0.51744   0.98998   0.39304   0.00000  Uiso   1.00
H167   H     0.78653   0.80809   0.95213   0.00000  Uiso   1.00
H168   H     0.42459   0.91025   0.65394   0.00000  Uiso   1.00
H169   H     0.49814   0.75635   0.10762   0.00000  Uiso   1.00
H170   H     0.46798   0.79338   0.29733   0.00000  Uiso   1.00
H171   H     0.59560   0.70711   0.08824   0.00000  Uiso   1.00
H172   H     0.42396   0.75556   0.94684   0.00000  Uiso   1.00
H173   H     0.44547   0.85489   0.49259   0.00000  Uiso   1.00
H174   H     0.71456   0.67300   0.05167   0.00000  Uiso   1.00
H175   H     0.35262   0.77516   0.75349   0.00000  Uiso   1.00
O176   O     0.46315   0.94963   0.56552   0.00000  Uiso   1.00
O177   O     0.81617   0.71099   0.98705   0.00000  Uiso   1.00
O178   O     0.34132   0.84504   0.59584   0.00000  Uiso   1.00
N179   N     0.50463   0.95311   0.39042   0.00000  Uiso   1.00
N180   N     0.75621   0.78305   0.97822   0.00000  Uiso   1.00
N181   N     0.41784   0.87856   0.69942   0.00000  Uiso   1.00
N182   N     0.46590   0.88042   0.44399   0.00000  Uiso   1.00
N183   N     0.71749   0.71036   0.03178   0.00000  Uiso   1.00
N184   N     0.37911   0.80587   0.75299   0.00000  Uiso   1.00
C185   C     0.93706   0.37799   0.01799   0.00000  Uiso   1.00
C186   C     0.96260   0.38093   0.13372   0.00000  Uiso   1.00
C187   C     0.96250   0.42389   0.20119   0.00000  Uiso   1.00
C188   C     0.98803   0.41877   0.30421   0.00000  Uiso   1.00
C189   C     0.02391   0.43040   0.47872   0.00000  Uiso   1.00
C190   C     0.89326   0.33406   0.02013   0.00000  Uiso   1.00
C191   C     0.83485   0.33762   0.99208   0.00000  Uiso   1.00
C192   C     0.80202   0.29304   0.99947   0.00000  Uiso   1.00
C193   C     0.73025   0.23189   0.99755   0.00000  Uiso   1.00
C194   C     0.98652   0.36039   0.94331   0.00000  Uiso   1.00
C195   C     0.00652   0.38607   0.85064   0.00000  Uiso   1.00
C196   C     0.05220   0.36366   0.79334   0.00000  Uiso   1.00
C197   C     0.12523   0.34339   0.67214   0.00000  Uiso   1.00
C198   C     0.98260   0.29250   0.08098   0.00000  Uiso   1.00
C199   C     0.98733   0.33449   0.16793   0.00000  Uiso   1.00
C200   C     0.01288   0.32931   0.27088   0.00000  Uiso   1.00
C201   C     0.01282   0.37226   0.33849   0.00000  Uiso   1.00
C202   C     0.91799   0.28763   0.05434   0.00000  Uiso   1.00
C203   C     0.88524   0.24304   0.06177   0.00000  Uiso   1.00
C204   C     0.82680   0.24653   0.03375   0.00000  Uiso   1.00
C205   C     0.01126   0.31396   0.97752   0.00000  Uiso   1.00
C206   C     0.05691   0.29149   0.92034   0.00000  Uiso   1.00
C207   C     0.07698   0.31714   0.82761   0.00000  Uiso   1.00
H208   H     0.91779   0.41413   0.99136   0.00000  Uiso   1.00
H209   H     0.94334   0.45981   0.17468   0.00000  Uiso   1.00
H210   H     0.81572   0.37355   0.96560   0.00000  Uiso   1.00
H211   H     0.98736   0.42200   0.82419   0.00000  Uiso   1.00
H212   H     0.98256   0.48998   0.39304   0.00000  Uiso   1.00
H213   H     0.71347   0.30809   0.95213   0.00000  Uiso   1.00
H214   H     0.07541   0.41025   0.65394   0.00000  Uiso   1.00
H215   H     0.00186   0.25635   0.10762   0.00000  Uiso   1.00
H216   H     0.03202   0.29338   0.29733   0.00000  Uiso   1.00
H217   H     0.90440   0.20711   0.08824   0.00000  Uiso   1.00
H218   H     0.07604   0.25556   0.94684   0.00000  Uiso   1.00
H219   H     0.05453   0.35489   0.49259   0.00000  Uiso   1.00
H220   H     0.78544   0.17300   0.05167   0.00000  Uiso   1.00
H221   H     0.14738   0.27516   0.75349   0.00000  Uiso   1.00
O222   O     0.03685   0.44963   0.56552   0.00000  Uiso   1.00
O223   O     0.68383   0.21099   0.98705   0.00000  Uiso   1.00
O224   O     0.15868   0.34504   0.59584   0.00000  Uiso   1.00
N225   N     0.99537   0.45311   0.39042   0.00000  Uiso   1.00
N226   N     0.74379   0.28305   0.97822   0.00000  Uiso   1.00
N227   N     0.08216   0.37856   0.69942   0.00000  Uiso   1.00
N228   N     0.03410   0.38042   0.44399   0.00000  Uiso   1.00
N229   N     0.78251   0.21036   0.03178   0.00000  Uiso   1.00
N230   N     0.12089   0.30587   0.75299   0.00000  Uiso   1.00
C231   C     0.56294   0.62201   0.51799   0.00000  Uiso   1.00
C232   C     0.53740   0.61907   0.63372   0.00000  Uiso   1.00
C233   C     0.53750   0.57611   0.70119   0.00000  Uiso   1.00
C234   C     0.51197   0.58123   0.80421   0.00000  Uiso   1.00
C235   C     0.47609   0.56960   0.97872   0.00000  Uiso   1.00
C236   C     0.60674   0.66594   0.52013   0.00000  Uiso   1.00
C237   C     0.66515   0.66238   0.49208   0.00000  Uiso   1.00
C238   C     0.69798   0.70696   0.49947   0.00000  Uiso   1.00
C239   C     0.76975   0.76811   0.49755   0.00000  Uiso   1.00
C240   C     0.51348   0.63961   0.44331   0.00000  Uiso   1.00
C241   C     0.49348   0.61393   0.35064   0.00000  Uiso   1.00
C242   C     0.44780   0.63634   0.29334   0.00000  Uiso   1.00
C243   C     0.37477   0.65661   0.17214   0.00000  Uiso   1.00
C244   C     0.51740   0.70750   0.58098   0.00000  Uiso   1.00
C245   C     0.51267   0.66551   0.66793   0.00000  Uiso   1.00
C246   C     0.48712   0.67069   0.77088   0.00000  Uiso   1.00
C247   C     0.48718   0.62774   0.83849   0.00000  Uiso   1.00
C248   C     0.58201   0.71237   0.55434   0.00000  Uiso   1.00
C249   C     0.61476   0.75696   0.56177   0.00000  Uiso   1.00
C250   C     0.67320   0.75347   0.53375   0.00000  Uiso   1.00
C251   C     0.48874   0.68604   0.47752   0.00000  Uiso   1.00
C252   C     0.44309   0.70851   0.42034   0.00000  Uiso   1.00
C253   C     0.42302   0.68286   0.32761   0.00000  Uiso   1.00
H254   H     0.58221   0.58587   0.49136   0.00000  Uiso   1.00
H255   H     0.55666   0.54019   0.67468   0.00000  Uiso   1.00
H256   H     0.68428   0.62645   0.46560   0.00000  Uiso   1.00
H257   H     0.51264   0.57800   0.32419   0.00000  Uiso   1.00
H258   H     0.51744   0.51002   0.89304   0.00000  Uiso   1.00
H259   H     0.78653   0.69191   0.45213   0.00000  Uiso   1.00
H260   H     0.42459   0.58975   0.15394   0.00000  Uiso   1.00
H261   H     0.49814   0.74365   0.60762   0.00000  Uiso   1.00
H262   H     0.46798   0.70662   0.79733   0.00000  Uiso   1.00
H263   H     0.59560   0.79289   0.58824   0.00000  Uiso   1.00
H264   H     0.42396   0.74444   0.44684   0.00000  Uiso   1.00
H265   H     0.44547   0.64511   0.99259   0.00000  Uiso   1.00
H266   H     0.71456   0.82700   0.55167   0.00000  Uiso   1.00
H267   H     0.35262   0.72484   0.25349   0.00000  Uiso   1.00
O268   O     0.46315   0.55037   0.06552   0.00000  Uiso   1.00
O269   O     0.81617   0.78901   0.48705   0.00000  Uiso   1.00
O270   O     0.34132   0.65496   0.09584   0.00000  Uiso   1.00
N271   N     0.50463   0.54689   0.89042   0.00000  Uiso   1.00
N272   N     0.75621   0.71695   0.47822   0.00000  Uiso   1.00
N273   N     0.41784   0.62144   0.19942   0.00000  Uiso   1.00
N274   N     0.46590   0.61958   0.94399   0.00000  Uiso   1.00
N275   N     0.71749   0.78964   0.53178   0.00000  Uiso   1.00
N276   N     0.37911   0.69413   0.25299   0.00000  Uiso   1.00
C277   C     0.06294   0.87799   0.48201   0.00000  Uiso   1.00
C278   C     0.03740   0.88093   0.36628   0.00000  Uiso   1.00
C279   C     0.03750   0.92389   0.29881   0.00000  Uiso   1.00
C280   C     0.01197   0.91877   0.19579   0.00000  Uiso   1.00
C281   C     0.97609   0.93040   0.02128   0.00000  Uiso   1.00
C282   C     0.10674   0.83406   0.47987   0.00000  Uiso   1.00
C283   C     0.16515   0.83762   0.50792   0.00000  Uiso   1.00
C284   C     0.19798   0.79304   0.50053   0.00000  Uiso   1.00
C285   C     0.26975   0.73189   0.50245   0.00000  Uiso   1.00
C286   C     0.01348   0.86039   0.55669   0.00000  Uiso   1.00
C287   C     0.99348   0.88607   0.64936   0.00000  Uiso   1.00
C288   C     0.94780   0.86366   0.70666   0.00000  Uiso   1.00
C289   C     0.87477   0.84339   0.82786   0.00000  Uiso   1.00
C290   C     0.01740   0.79250   0.41902   0.00000  Uiso   1.00
C291   C     0.01267   0.83449   0.33207   0.00000  Uiso   1.00
C292   C     0.98712   0.82931   0.22912   0.00000  Uiso   1.00
C293   C     0.98718   0.87226   0.16151   0.00000  Uiso   1.00
C294   C     0.08201   0.78763   0.44566   0.00000  Uiso   1.00
C295   C     0.11476   0.74304   0.43823   0.00000  Uiso   1.00
C296   C     0.17320   0.74653   0.46625   0.00000  Uiso   1.00
C297   C     0.98874   0.81396   0.52248   0.00000  Uiso   1.00
C298   C     0.94309   0.79149   0.57966   0.00000  Uiso   1.00
C299   C     0.92302   0.81714   0.67239   0.00000  Uiso   1.00
H300   H     0.08221   0.91413   0.50864   0.00000  Uiso   1.00
H301   H     0.05666   0.95981   0.32532   0.00000  Uiso   1.00
H302   H     0.18428   0.87355   0.53440   0.00000  Uiso   1.00
H303   H     0.01264   0.92200   0.67581   0.00000  Uiso   1.00
H304   H     0.01744   0.98998   0.10696   0.00000  Uiso   1.00
H305   H     0.28653   0.80809   0.54787   0.00000  Uiso   1.00
H306   H     0.92459   0.91025   0.84606   0.00000  Uiso   1.00
H307   H     0.99814   0.75635   0.39238   0.00000  Uiso   1.00
H308   H     0.96798   0.79338   0.20267   0.00000  Uiso   1.00
H309   H     0.09560   0.70711   0.41176   0.00000  Uiso   1.00
H310   H     0.92396   0.75556   0.55316   0.00000  Uiso   1.00
H311   H     0.94547   0.85489   0.00741   0.00000  Uiso   1.00
H312   H     0.21456   0.67300   0.44833   0.00000  Uiso   1.00
H313   H     0.85262   0.77516   0.74651   0.00000  Uiso   1.00
O314   O     0.96315   0.94963   0.93448   0.00000  Uiso   1.00
O315   O     0.31617   0.71099   0.51295   0.00000  Uiso   1.00
O316   O     0.84132   0.84504   0.90416   0.00000  Uiso   1.00
N317   N     0.00463   0.95311   0.10958   0.00000  Uiso   1.00
N318   N     0.25621   0.78305   0.52178   0.00000  Uiso   1.00
N319   N     0.91784   0.87856   0.80058   0.00000  Uiso   1.00
N320   N     0.96590   0.88042   0.05601   0.00000  Uiso   1.00
N321   N     0.21749   0.71036   0.46822   0.00000  Uiso   1.00
N322   N     0.87911   0.80587   0.74701   0.00000  Uiso   1.00
C323   C     0.43706   0.12201   0.98201   0.00000  Uiso   1.00
C324   C     0.46260   0.11907   0.86628   0.00000  Uiso   1.00
C325   C     0.46250   0.07611   0.79881   0.00000  Uiso   1.00
C326   C     0.48803   0.08123   0.69579   0.00000  Uiso   1.00
C327   C     0.52391   0.06960   0.52128   0.00000  Uiso   1.00
C328   C     0.39326   0.16594   0.97987   0.00000  Uiso   1.00
C329   C     0.33485   0.16238   0.00792   0.00000  Uiso   1.00
C330   C     0.30202   0.20696   0.00053   0.00000  Uiso   1.00
C331   C     0.23025   0.26811   0.00245   0.00000  Uiso   1.00
C332   C     0.48652   0.13961   0.05669   0.00000  Uiso   1.00
C333   C     0.50652   0.11393   0.14936   0.00000  Uiso   1.00
C334   C     0.55220   0.13634   0.20666   0.00000  Uiso   1.00
C335   C     0.62523   0.15661   0.32786   0.00000  Uiso   1.00
C336   C     0.48260   0.20750   0.91902   0.00000  Uiso   1.00
C337   C     0.48733   0.16551   0.83207   0.00000  Uiso   1.00
C338   C     0.51288   0.17069   0.72912   0.00000  Uiso   1.00
C339   C     0.51282   0.12774   0.66151   0.00000  Uiso   1.00
C340   C     0.41799   0.21237   0.94566   0.00000  Uiso   1.00
C341   C     0.38524   0.25696   0.93823   0.00000  Uiso   1.00
C342   C     0.32680   0.25347   0.96625   0.00000  Uiso   1.00
C343   C     0.51126   0.18604   0.02248   0.00000  Uiso   1.00
C344   C     0.55691   0.20851   0.07966   0.00000  Uiso   1.00
C345   C     0.57698   0.18286   0.17239   0.00000  Uiso   1.00
H346   H     0.41779   0.08587   0.00864   0.00000  Uiso   1.00
H347   H     0.44334   0.04019   0.82532   0.00000  Uiso   1.00
H348   H     0.31572   0.12645   0.03440   0.00000  Uiso   1.00
H349   H     0.48736   0.07800   0.17581   0.00000  Uiso   1.00
H350   H     0.48256   0.01002   0.60696   0.00000  Uiso   1.00
H351   H     0.21347   0.19191   0.04787   0.00000  Uiso   1.00
H352   H     0.57541   0.08975   0.34606   0.00000  Uiso   1.00
H353   H     0.50186   0.24365   0.89238   0.00000  Uiso   1.00
H354   H     0.53202   0.20662   0.70267   0.00000  Uiso   1.00
H355   H     0.40440   0.29289   0.91176   0.00000  Uiso   1.00
H356   H     0.57604   0.24444   0.05316   0.00000  Uiso   1.00
H357   H     0.55453   0.14511   0.50741   0.00000  Uiso   1.00
H358   H     0.28544   0.32700   0.94833   0.00000  Uiso   1.00
H359   H     0.64738   0.22484   0.24651   0.00000  Uiso   1.00
O360   O     0.53685   0.05037   0.43448   0.00000  Uiso   1.00
O361   O     0.18383   0.28901   0.01295   0.00000  Uiso   1.00
O362   O     0.65868   0.15496   0.40416   0.00000  Uiso   1.00
N363   N     0.49537   0.04689   0.60958   0.00000  Uiso   1.00
N364   N     0.24379   0.21695   0.02178   0.00000  Uiso   1.00
N365   N     0.58216   0.12144   0.30058   0.00000  Uiso   1.00
N366   N     0.53410   0.11958   0.55601   0.00000  Uiso   1.00
N367   N     0.28251   0.28964   0.96822   0.00000  Uiso   1.00
N368   N     0.62089   0.19413   0.24701   0.00000  Uiso   1.00
