data_job_01449
_audit_creation_date              2018-12-19
_audit_creation_method            'Materials Studio'
_symmetry_space_group_name_H-M    'P1'
_symmetry_Int_Tables_number       1
_symmetry_cell_setting            triclinic
loop_
_symmetry_equiv_pos_as_xyz
  x,y,z
_cell_length_a                    11.2854
_cell_length_b                    11.2854
_cell_length_c                    39.8173
_cell_angle_alpha                 90.0000
_cell_angle_beta                  90.0000
_cell_angle_gamma                 90.0000
loop_
_atom_site_label
_atom_site_type_symbol
_atom_site_fract_x
_atom_site_fract_y
_atom_site_fract_z
_atom_site_U_iso_or_equiv
_atom_site_adp_type
_atom_site_occupancy
C1     C     0.13493   0.58158   0.38909   0.00000  Uiso   1.00
C2     C     0.06169   0.68062   0.40484   0.00000  Uiso   1.00
C3     C     0.09038   0.80020   0.40465   0.00000  Uiso   1.00
C4     C     0.01182   0.87677   0.42042   0.00000  Uiso   1.00
C5     C     0.91387   0.03689   0.44254   0.00000  Uiso   1.00
C6     C     0.15994   0.49345   0.41724   0.00000  Uiso   1.00
C7     C     0.27125   0.45564   0.42748   0.00000  Uiso   1.00
C8     C     0.27538   0.37464   0.45370   0.00000  Uiso   1.00
C9     C     0.32997   0.24410   0.49507   0.00000  Uiso   1.00
C10    C     0.05256   0.51814   0.36463   0.00000  Uiso   1.00
C11    C     0.07360   0.50106   0.33063   0.00000  Uiso   1.00
C12    C     0.98734   0.44082   0.31255   0.00000  Uiso   1.00
C13    C     0.87521   0.34862   0.27223   0.00000  Uiso   1.00
C14    C     0.94436   0.50494   0.41745   0.00000  Uiso   1.00
C15    C     0.95818   0.63899   0.42024   0.00000  Uiso   1.00
C16    C     0.87955   0.71541   0.43602   0.00000  Uiso   1.00
C17    C     0.90812   0.83507   0.43585   0.00000  Uiso   1.00
C18    C     0.05644   0.45182   0.43265   0.00000  Uiso   1.00
C19    C     0.06041   0.37085   0.45885   0.00000  Uiso   1.00
C20    C     0.17169   0.33294   0.46913   0.00000  Uiso   1.00
C21    C     0.94905   0.47651   0.38003   0.00000  Uiso   1.00
C22    C     0.86275   0.41628   0.36200   0.00000  Uiso   1.00
C23    C     0.88365   0.39912   0.32798   0.00000  Uiso   1.00
H24    H     0.21551   0.61398   0.37710   0.00000  Uiso   1.00
H25    H     0.17050   0.83238   0.39273   0.00000  Uiso   1.00
H26    H     0.35133   0.48786   0.41556   0.00000  Uiso   1.00
H27    H     0.15371   0.53329   0.31872   0.00000  Uiso   1.00
H28    H     0.07497   0.05614   0.41685   0.00000  Uiso   1.00
H29    H     0.45626   0.32969   0.46499   0.00000  Uiso   1.00
H30    H     0.03953   0.42547   0.26079   0.00000  Uiso   1.00
H31    H     0.86378   0.47253   0.42944   0.00000  Uiso   1.00
H32    H     0.79945   0.68317   0.44793   0.00000  Uiso   1.00
H33    H     0.98029   0.33865   0.47076   0.00000  Uiso   1.00
H34    H     0.78267   0.38408   0.37393   0.00000  Uiso   1.00
H35    H     0.77382   0.93504   0.46166   0.00000  Uiso   1.00
H36    H     0.15511   0.20858   0.50980   0.00000  Uiso   1.00
H37    H     0.73838   0.30437   0.30559   0.00000  Uiso   1.00
O38    O     0.88845   0.13670   0.45049   0.00000  Uiso   1.00
O39    O     0.38869   0.18361   0.51364   0.00000  Uiso   1.00
O40    O     0.84195   0.30928   0.24573   0.00000  Uiso   1.00
N41    N     0.01291   0.99874   0.42485   0.00000  Uiso   1.00
N42    N     0.36939   0.31956   0.46986   0.00000  Uiso   1.00
N43    N     0.97980   0.40908   0.27895   0.00000  Uiso   1.00
N44    N     0.85086   0.93357   0.44896   0.00000  Uiso   1.00
N45    N     0.20735   0.25440   0.49397   0.00000  Uiso   1.00
N46    N     0.81775   0.34391   0.30306   0.00000  Uiso   1.00
C47    C     0.86507   0.41842   0.88909   0.00000  Uiso   1.00
C48    C     0.93831   0.31938   0.90484   0.00000  Uiso   1.00
C49    C     0.90962   0.19980   0.90465   0.00000  Uiso   1.00
C50    C     0.98818   0.12323   0.92042   0.00000  Uiso   1.00
C51    C     0.08613   0.96311   0.94254   0.00000  Uiso   1.00
C52    C     0.84006   0.50655   0.91724   0.00000  Uiso   1.00
C53    C     0.72875   0.54436   0.92748   0.00000  Uiso   1.00
C54    C     0.72462   0.62536   0.95370   0.00000  Uiso   1.00
C55    C     0.67003   0.75590   0.99507   0.00000  Uiso   1.00
C56    C     0.94744   0.48186   0.86463   0.00000  Uiso   1.00
C57    C     0.92640   0.49894   0.83063   0.00000  Uiso   1.00
C58    C     0.01266   0.55918   0.81255   0.00000  Uiso   1.00
C59    C     0.12479   0.65138   0.77223   0.00000  Uiso   1.00
C60    C     0.05564   0.49506   0.91745   0.00000  Uiso   1.00
C61    C     0.04182   0.36101   0.92024   0.00000  Uiso   1.00
C62    C     0.12045   0.28459   0.93602   0.00000  Uiso   1.00
C63    C     0.09188   0.16493   0.93585   0.00000  Uiso   1.00
C64    C     0.94356   0.54818   0.93265   0.00000  Uiso   1.00
C65    C     0.93959   0.62915   0.95885   0.00000  Uiso   1.00
C66    C     0.82831   0.66706   0.96913   0.00000  Uiso   1.00
C67    C     0.05095   0.52349   0.88003   0.00000  Uiso   1.00
C68    C     0.13725   0.58372   0.86200   0.00000  Uiso   1.00
C69    C     0.11635   0.60088   0.82798   0.00000  Uiso   1.00
H70    H     0.78449   0.38602   0.87710   0.00000  Uiso   1.00
H71    H     0.82950   0.16762   0.89273   0.00000  Uiso   1.00
H72    H     0.64867   0.51214   0.91556   0.00000  Uiso   1.00
H73    H     0.84629   0.46671   0.81872   0.00000  Uiso   1.00
H74    H     0.92503   0.94386   0.91685   0.00000  Uiso   1.00
H75    H     0.54374   0.67031   0.96499   0.00000  Uiso   1.00
H76    H     0.96047   0.57453   0.76079   0.00000  Uiso   1.00
H77    H     0.13622   0.52747   0.92944   0.00000  Uiso   1.00
H78    H     0.20055   0.31683   0.94793   0.00000  Uiso   1.00
H79    H     0.01971   0.66135   0.97076   0.00000  Uiso   1.00
H80    H     0.21733   0.61592   0.87393   0.00000  Uiso   1.00
H81    H     0.22618   0.06496   0.96166   0.00000  Uiso   1.00
H82    H     0.84489   0.79142   0.00980   0.00000  Uiso   1.00
H83    H     0.26162   0.69563   0.80559   0.00000  Uiso   1.00
O84    O     0.11155   0.86330   0.95049   0.00000  Uiso   1.00
O85    O     0.61131   0.81639   0.01364   0.00000  Uiso   1.00
O86    O     0.15805   0.69072   0.74573   0.00000  Uiso   1.00
N87    N     0.98709   0.00126   0.92485   0.00000  Uiso   1.00
N88    N     0.63061   0.68044   0.96986   0.00000  Uiso   1.00
N89    N     0.02020   0.59092   0.77895   0.00000  Uiso   1.00
N90    N     0.14914   0.06643   0.94896   0.00000  Uiso   1.00
N91    N     0.79265   0.74560   0.99397   0.00000  Uiso   1.00
N92    N     0.18225   0.65609   0.80306   0.00000  Uiso   1.00
C93    C     0.41842   0.13493   0.63909   0.00000  Uiso   1.00
C94    C     0.31938   0.06169   0.65484   0.00000  Uiso   1.00
C95    C     0.19980   0.09038   0.65465   0.00000  Uiso   1.00
C96    C     0.12323   0.01182   0.67042   0.00000  Uiso   1.00
C97    C     0.96311   0.91387   0.69254   0.00000  Uiso   1.00
C98    C     0.50655   0.15994   0.66724   0.00000  Uiso   1.00
C99    C     0.54436   0.27125   0.67748   0.00000  Uiso   1.00
C100   C     0.62536   0.27538   0.70370   0.00000  Uiso   1.00
C101   C     0.75590   0.32997   0.74507   0.00000  Uiso   1.00
C102   C     0.48186   0.05256   0.61463   0.00000  Uiso   1.00
C103   C     0.49894   0.07360   0.58063   0.00000  Uiso   1.00
C104   C     0.55918   0.98734   0.56255   0.00000  Uiso   1.00
C105   C     0.65138   0.87521   0.52223   0.00000  Uiso   1.00
C106   C     0.49506   0.94436   0.66745   0.00000  Uiso   1.00
C107   C     0.36101   0.95818   0.67024   0.00000  Uiso   1.00
C108   C     0.28459   0.87955   0.68602   0.00000  Uiso   1.00
C109   C     0.16493   0.90812   0.68585   0.00000  Uiso   1.00
C110   C     0.54818   0.05644   0.68265   0.00000  Uiso   1.00
C111   C     0.62915   0.06041   0.70885   0.00000  Uiso   1.00
C112   C     0.66706   0.17169   0.71913   0.00000  Uiso   1.00
C113   C     0.52349   0.94905   0.63003   0.00000  Uiso   1.00
C114   C     0.58372   0.86275   0.61200   0.00000  Uiso   1.00
C115   C     0.60088   0.88365   0.57798   0.00000  Uiso   1.00
H116   H     0.38602   0.21551   0.62710   0.00000  Uiso   1.00
H117   H     0.16762   0.17050   0.64273   0.00000  Uiso   1.00
H118   H     0.51214   0.35133   0.66556   0.00000  Uiso   1.00
H119   H     0.46671   0.15371   0.56872   0.00000  Uiso   1.00
H120   H     0.94386   0.07497   0.66685   0.00000  Uiso   1.00
H121   H     0.67031   0.45626   0.71499   0.00000  Uiso   1.00
H122   H     0.57453   0.03953   0.51079   0.00000  Uiso   1.00
H123   H     0.52747   0.86378   0.67944   0.00000  Uiso   1.00
H124   H     0.31683   0.79945   0.69793   0.00000  Uiso   1.00
H125   H     0.66135   0.98029   0.72076   0.00000  Uiso   1.00
H126   H     0.61592   0.78267   0.62393   0.00000  Uiso   1.00
H127   H     0.06496   0.77382   0.71166   0.00000  Uiso   1.00
H128   H     0.79142   0.15511   0.75980   0.00000  Uiso   1.00
H129   H     0.69563   0.73838   0.55559   0.00000  Uiso   1.00
O130   O     0.86330   0.88845   0.70049   0.00000  Uiso   1.00
O131   O     0.81639   0.38869   0.76364   0.00000  Uiso   1.00
O132   O     0.69072   0.84195   0.49573   0.00000  Uiso   1.00
N133   N     0.00126   0.01291   0.67485   0.00000  Uiso   1.00
N134   N     0.68044   0.36939   0.71986   0.00000  Uiso   1.00
N135   N     0.59092   0.97980   0.52895   0.00000  Uiso   1.00
N136   N     0.06643   0.85086   0.69896   0.00000  Uiso   1.00
N137   N     0.74560   0.20735   0.74397   0.00000  Uiso   1.00
N138   N     0.65609   0.81775   0.55306   0.00000  Uiso   1.00
C139   C     0.58158   0.86507   0.13909   0.00000  Uiso   1.00
C140   C     0.68062   0.93831   0.15484   0.00000  Uiso   1.00
C141   C     0.80020   0.90962   0.15465   0.00000  Uiso   1.00
C142   C     0.87677   0.98818   0.17042   0.00000  Uiso   1.00
C143   C     0.03689   0.08613   0.19254   0.00000  Uiso   1.00
C144   C     0.49345   0.84006   0.16724   0.00000  Uiso   1.00
C145   C     0.45564   0.72875   0.17748   0.00000  Uiso   1.00
C146   C     0.37464   0.72462   0.20370   0.00000  Uiso   1.00
C147   C     0.24410   0.67003   0.24507   0.00000  Uiso   1.00
C148   C     0.51814   0.94744   0.11463   0.00000  Uiso   1.00
C149   C     0.50106   0.92640   0.08063   0.00000  Uiso   1.00
C150   C     0.44082   0.01266   0.06255   0.00000  Uiso   1.00
C151   C     0.34862   0.12479   0.02223   0.00000  Uiso   1.00
C152   C     0.50494   0.05564   0.16745   0.00000  Uiso   1.00
C153   C     0.63899   0.04182   0.17024   0.00000  Uiso   1.00
C154   C     0.71541   0.12045   0.18602   0.00000  Uiso   1.00
C155   C     0.83507   0.09188   0.18585   0.00000  Uiso   1.00
C156   C     0.45182   0.94356   0.18265   0.00000  Uiso   1.00
C157   C     0.37085   0.93959   0.20885   0.00000  Uiso   1.00
C158   C     0.33294   0.82831   0.21913   0.00000  Uiso   1.00
C159   C     0.47651   0.05095   0.13003   0.00000  Uiso   1.00
C160   C     0.41628   0.13725   0.11200   0.00000  Uiso   1.00
C161   C     0.39912   0.11635   0.07798   0.00000  Uiso   1.00
H162   H     0.61398   0.78449   0.12710   0.00000  Uiso   1.00
H163   H     0.83238   0.82950   0.14273   0.00000  Uiso   1.00
H164   H     0.48786   0.64867   0.16556   0.00000  Uiso   1.00
H165   H     0.53329   0.84629   0.06872   0.00000  Uiso   1.00
H166   H     0.05614   0.92503   0.16685   0.00000  Uiso   1.00
H167   H     0.32969   0.54374   0.21499   0.00000  Uiso   1.00
H168   H     0.42547   0.96047   0.01079   0.00000  Uiso   1.00
H169   H     0.47253   0.13622   0.17944   0.00000  Uiso   1.00
H170   H     0.68317   0.20055   0.19793   0.00000  Uiso   1.00
H171   H     0.33865   0.01971   0.22076   0.00000  Uiso   1.00
H172   H     0.38408   0.21733   0.12393   0.00000  Uiso   1.00
H173   H     0.93504   0.22618   0.21166   0.00000  Uiso   1.00
H174   H     0.20858   0.84489   0.25980   0.00000  Uiso   1.00
H175   H     0.30437   0.26162   0.05559   0.00000  Uiso   1.00
O176   O     0.13670   0.11155   0.20049   0.00000  Uiso   1.00
O177   O     0.18361   0.61131   0.26364   0.00000  Uiso   1.00
O178   O     0.30928   0.15805   0.99573   0.00000  Uiso   1.00
N179   N     0.99874   0.98709   0.17485   0.00000  Uiso   1.00
N180   N     0.31956   0.63061   0.21986   0.00000  Uiso   1.00
N181   N     0.40908   0.02020   0.02895   0.00000  Uiso   1.00
N182   N     0.93357   0.14914   0.19896   0.00000  Uiso   1.00
N183   N     0.25440   0.79265   0.24397   0.00000  Uiso   1.00
N184   N     0.34391   0.18225   0.05306   0.00000  Uiso   1.00
C185   C     0.86507   0.58158   0.61091   0.00000  Uiso   1.00
C186   C     0.93831   0.68062   0.59516   0.00000  Uiso   1.00
C187   C     0.90962   0.80020   0.59535   0.00000  Uiso   1.00
C188   C     0.98818   0.87677   0.57958   0.00000  Uiso   1.00
C189   C     0.08613   0.03689   0.55746   0.00000  Uiso   1.00
C190   C     0.84006   0.49345   0.58276   0.00000  Uiso   1.00
C191   C     0.72875   0.45564   0.57252   0.00000  Uiso   1.00
C192   C     0.72462   0.37464   0.54630   0.00000  Uiso   1.00
C193   C     0.67003   0.24410   0.50493   0.00000  Uiso   1.00
C194   C     0.94744   0.51814   0.63537   0.00000  Uiso   1.00
C195   C     0.92640   0.50106   0.66937   0.00000  Uiso   1.00
C196   C     0.01266   0.44082   0.68745   0.00000  Uiso   1.00
C197   C     0.12479   0.34862   0.72777   0.00000  Uiso   1.00
C198   C     0.05564   0.50494   0.58255   0.00000  Uiso   1.00
C199   C     0.04182   0.63899   0.57976   0.00000  Uiso   1.00
C200   C     0.12045   0.71541   0.56398   0.00000  Uiso   1.00
C201   C     0.09188   0.83507   0.56415   0.00000  Uiso   1.00
C202   C     0.94356   0.45182   0.56735   0.00000  Uiso   1.00
C203   C     0.93959   0.37085   0.54115   0.00000  Uiso   1.00
C204   C     0.82831   0.33294   0.53087   0.00000  Uiso   1.00
C205   C     0.05095   0.47651   0.61997   0.00000  Uiso   1.00
C206   C     0.13725   0.41628   0.63800   0.00000  Uiso   1.00
C207   C     0.11635   0.39912   0.67202   0.00000  Uiso   1.00
H208   H     0.78449   0.61398   0.62290   0.00000  Uiso   1.00
H209   H     0.82950   0.83238   0.60727   0.00000  Uiso   1.00
H210   H     0.64867   0.48786   0.58444   0.00000  Uiso   1.00
H211   H     0.84629   0.53329   0.68128   0.00000  Uiso   1.00
H212   H     0.92503   0.05614   0.58315   0.00000  Uiso   1.00
H213   H     0.54374   0.32969   0.53501   0.00000  Uiso   1.00
H214   H     0.96047   0.42547   0.73921   0.00000  Uiso   1.00
H215   H     0.13622   0.47253   0.57056   0.00000  Uiso   1.00
H216   H     0.20055   0.68317   0.55207   0.00000  Uiso   1.00
H217   H     0.01971   0.33865   0.52924   0.00000  Uiso   1.00
H218   H     0.21733   0.38408   0.62607   0.00000  Uiso   1.00
H219   H     0.22618   0.93504   0.53834   0.00000  Uiso   1.00
H220   H     0.84489   0.20858   0.49020   0.00000  Uiso   1.00
H221   H     0.26162   0.30437   0.69441   0.00000  Uiso   1.00
O222   O     0.11155   0.13670   0.54951   0.00000  Uiso   1.00
O223   O     0.61131   0.18361   0.48636   0.00000  Uiso   1.00
O224   O     0.15805   0.30928   0.75427   0.00000  Uiso   1.00
N225   N     0.98709   0.99874   0.57515   0.00000  Uiso   1.00
N226   N     0.63061   0.31956   0.53014   0.00000  Uiso   1.00
N227   N     0.02020   0.40908   0.72105   0.00000  Uiso   1.00
N228   N     0.14914   0.93357   0.55104   0.00000  Uiso   1.00
N229   N     0.79265   0.25440   0.50603   0.00000  Uiso   1.00
N230   N     0.18225   0.34391   0.69694   0.00000  Uiso   1.00
C231   C     0.13493   0.41842   0.11091   0.00000  Uiso   1.00
C232   C     0.06169   0.31938   0.09516   0.00000  Uiso   1.00
C233   C     0.09038   0.19980   0.09535   0.00000  Uiso   1.00
C234   C     0.01182   0.12323   0.07958   0.00000  Uiso   1.00
C235   C     0.91387   0.96311   0.05746   0.00000  Uiso   1.00
C236   C     0.15994   0.50655   0.08276   0.00000  Uiso   1.00
C237   C     0.27125   0.54436   0.07252   0.00000  Uiso   1.00
C238   C     0.27538   0.62536   0.04630   0.00000  Uiso   1.00
C239   C     0.32997   0.75590   0.00493   0.00000  Uiso   1.00
C240   C     0.05256   0.48186   0.13537   0.00000  Uiso   1.00
C241   C     0.07360   0.49894   0.16937   0.00000  Uiso   1.00
C242   C     0.98734   0.55918   0.18745   0.00000  Uiso   1.00
C243   C     0.87521   0.65138   0.22777   0.00000  Uiso   1.00
C244   C     0.94436   0.49506   0.08255   0.00000  Uiso   1.00
C245   C     0.95818   0.36101   0.07976   0.00000  Uiso   1.00
C246   C     0.87955   0.28459   0.06398   0.00000  Uiso   1.00
C247   C     0.90812   0.16493   0.06415   0.00000  Uiso   1.00
C248   C     0.05644   0.54818   0.06735   0.00000  Uiso   1.00
C249   C     0.06041   0.62915   0.04115   0.00000  Uiso   1.00
C250   C     0.17169   0.66706   0.03087   0.00000  Uiso   1.00
C251   C     0.94905   0.52349   0.11997   0.00000  Uiso   1.00
C252   C     0.86275   0.58372   0.13800   0.00000  Uiso   1.00
C253   C     0.88365   0.60088   0.17202   0.00000  Uiso   1.00
H254   H     0.21551   0.38602   0.12290   0.00000  Uiso   1.00
H255   H     0.17050   0.16762   0.10727   0.00000  Uiso   1.00
H256   H     0.35133   0.51214   0.08444   0.00000  Uiso   1.00
H257   H     0.15371   0.46671   0.18128   0.00000  Uiso   1.00
H258   H     0.07497   0.94386   0.08315   0.00000  Uiso   1.00
H259   H     0.45626   0.67031   0.03501   0.00000  Uiso   1.00
H260   H     0.03953   0.57453   0.23921   0.00000  Uiso   1.00
H261   H     0.86378   0.52747   0.07056   0.00000  Uiso   1.00
H262   H     0.79945   0.31683   0.05207   0.00000  Uiso   1.00
H263   H     0.98029   0.66135   0.02924   0.00000  Uiso   1.00
H264   H     0.78267   0.61592   0.12607   0.00000  Uiso   1.00
H265   H     0.77382   0.06496   0.03834   0.00000  Uiso   1.00
H266   H     0.15511   0.79142   0.99020   0.00000  Uiso   1.00
H267   H     0.73838   0.69563   0.19441   0.00000  Uiso   1.00
O268   O     0.88845   0.86330   0.04951   0.00000  Uiso   1.00
O269   O     0.38869   0.81639   0.98636   0.00000  Uiso   1.00
O270   O     0.84195   0.69072   0.25427   0.00000  Uiso   1.00
N271   N     0.01291   0.00126   0.07515   0.00000  Uiso   1.00
N272   N     0.36939   0.68044   0.03014   0.00000  Uiso   1.00
N273   N     0.97980   0.59092   0.22105   0.00000  Uiso   1.00
N274   N     0.85086   0.06643   0.05104   0.00000  Uiso   1.00
N275   N     0.20735   0.74560   0.00603   0.00000  Uiso   1.00
N276   N     0.81775   0.65609   0.19694   0.00000  Uiso   1.00
C277   C     0.58158   0.13493   0.36091   0.00000  Uiso   1.00
C278   C     0.68062   0.06169   0.34516   0.00000  Uiso   1.00
C279   C     0.80020   0.09038   0.34535   0.00000  Uiso   1.00
C280   C     0.87677   0.01182   0.32958   0.00000  Uiso   1.00
C281   C     0.03689   0.91387   0.30746   0.00000  Uiso   1.00
C282   C     0.49345   0.15994   0.33276   0.00000  Uiso   1.00
C283   C     0.45564   0.27125   0.32252   0.00000  Uiso   1.00
C284   C     0.37464   0.27538   0.29630   0.00000  Uiso   1.00
C285   C     0.24410   0.32997   0.25493   0.00000  Uiso   1.00
C286   C     0.51814   0.05256   0.38537   0.00000  Uiso   1.00
C287   C     0.50106   0.07360   0.41937   0.00000  Uiso   1.00
C288   C     0.44082   0.98734   0.43745   0.00000  Uiso   1.00
C289   C     0.34862   0.87521   0.47777   0.00000  Uiso   1.00
C290   C     0.50494   0.94436   0.33255   0.00000  Uiso   1.00
C291   C     0.63899   0.95818   0.32976   0.00000  Uiso   1.00
C292   C     0.71541   0.87955   0.31398   0.00000  Uiso   1.00
C293   C     0.83507   0.90812   0.31415   0.00000  Uiso   1.00
C294   C     0.45182   0.05644   0.31735   0.00000  Uiso   1.00
C295   C     0.37085   0.06041   0.29115   0.00000  Uiso   1.00
C296   C     0.33294   0.17169   0.28087   0.00000  Uiso   1.00
C297   C     0.47651   0.94905   0.36997   0.00000  Uiso   1.00
C298   C     0.41628   0.86275   0.38800   0.00000  Uiso   1.00
C299   C     0.39912   0.88365   0.42202   0.00000  Uiso   1.00
H300   H     0.61398   0.21551   0.37290   0.00000  Uiso   1.00
H301   H     0.83238   0.17050   0.35727   0.00000  Uiso   1.00
H302   H     0.48786   0.35133   0.33444   0.00000  Uiso   1.00
H303   H     0.53329   0.15371   0.43128   0.00000  Uiso   1.00
H304   H     0.05614   0.07497   0.33315   0.00000  Uiso   1.00
H305   H     0.32969   0.45626   0.28501   0.00000  Uiso   1.00
H306   H     0.42547   0.03953   0.48921   0.00000  Uiso   1.00
H307   H     0.47253   0.86378   0.32056   0.00000  Uiso   1.00
H308   H     0.68317   0.79945   0.30207   0.00000  Uiso   1.00
H309   H     0.33865   0.98029   0.27924   0.00000  Uiso   1.00
H310   H     0.38408   0.78267   0.37607   0.00000  Uiso   1.00
H311   H     0.93504   0.77382   0.28834   0.00000  Uiso   1.00
H312   H     0.20858   0.15511   0.24020   0.00000  Uiso   1.00
H313   H     0.30437   0.73838   0.44441   0.00000  Uiso   1.00
O314   O     0.13670   0.88845   0.29951   0.00000  Uiso   1.00
O315   O     0.18361   0.38869   0.23636   0.00000  Uiso   1.00
O316   O     0.30928   0.84195   0.50427   0.00000  Uiso   1.00
N317   N     0.99874   0.01291   0.32515   0.00000  Uiso   1.00
N318   N     0.31956   0.36939   0.28014   0.00000  Uiso   1.00
N319   N     0.40908   0.97980   0.47105   0.00000  Uiso   1.00
N320   N     0.93357   0.85086   0.30104   0.00000  Uiso   1.00
N321   N     0.25440   0.20735   0.25603   0.00000  Uiso   1.00
N322   N     0.34391   0.81775   0.44694   0.00000  Uiso   1.00
C323   C     0.41842   0.86507   0.86091   0.00000  Uiso   1.00
C324   C     0.31938   0.93831   0.84516   0.00000  Uiso   1.00
C325   C     0.19980   0.90962   0.84535   0.00000  Uiso   1.00
C326   C     0.12323   0.98818   0.82958   0.00000  Uiso   1.00
C327   C     0.96311   0.08613   0.80746   0.00000  Uiso   1.00
C328   C     0.50655   0.84006   0.83276   0.00000  Uiso   1.00
C329   C     0.54436   0.72875   0.82252   0.00000  Uiso   1.00
C330   C     0.62536   0.72462   0.79630   0.00000  Uiso   1.00
C331   C     0.75590   0.67003   0.75493   0.00000  Uiso   1.00
C332   C     0.48186   0.94744   0.88537   0.00000  Uiso   1.00
C333   C     0.49894   0.92640   0.91937   0.00000  Uiso   1.00
C334   C     0.55918   0.01266   0.93745   0.00000  Uiso   1.00
C335   C     0.65138   0.12479   0.97777   0.00000  Uiso   1.00
C336   C     0.49506   0.05564   0.83255   0.00000  Uiso   1.00
C337   C     0.36101   0.04182   0.82976   0.00000  Uiso   1.00
C338   C     0.28459   0.12045   0.81398   0.00000  Uiso   1.00
C339   C     0.16493   0.09188   0.81415   0.00000  Uiso   1.00
C340   C     0.54818   0.94356   0.81735   0.00000  Uiso   1.00
C341   C     0.62915   0.93959   0.79115   0.00000  Uiso   1.00
C342   C     0.66706   0.82831   0.78087   0.00000  Uiso   1.00
C343   C     0.52349   0.05095   0.86997   0.00000  Uiso   1.00
C344   C     0.58372   0.13725   0.88800   0.00000  Uiso   1.00
C345   C     0.60088   0.11635   0.92202   0.00000  Uiso   1.00
H346   H     0.38602   0.78449   0.87290   0.00000  Uiso   1.00
H347   H     0.16762   0.82950   0.85727   0.00000  Uiso   1.00
H348   H     0.51214   0.64867   0.83444   0.00000  Uiso   1.00
H349   H     0.46671   0.84629   0.93128   0.00000  Uiso   1.00
H350   H     0.94386   0.92503   0.83315   0.00000  Uiso   1.00
H351   H     0.67031   0.54374   0.78501   0.00000  Uiso   1.00
H352   H     0.57453   0.96047   0.98921   0.00000  Uiso   1.00
H353   H     0.52747   0.13622   0.82056   0.00000  Uiso   1.00
H354   H     0.31683   0.20055   0.80207   0.00000  Uiso   1.00
H355   H     0.66135   0.01971   0.77924   0.00000  Uiso   1.00
H356   H     0.61592   0.21733   0.87607   0.00000  Uiso   1.00
H357   H     0.06496   0.22618   0.78834   0.00000  Uiso   1.00
H358   H     0.79142   0.84489   0.74020   0.00000  Uiso   1.00
H359   H     0.69563   0.26162   0.94441   0.00000  Uiso   1.00
O360   O     0.86330   0.11155   0.79951   0.00000  Uiso   1.00
O361   O     0.81639   0.61131   0.73636   0.00000  Uiso   1.00
O362   O     0.69072   0.15805   0.00427   0.00000  Uiso   1.00
N363   N     0.00126   0.98709   0.82515   0.00000  Uiso   1.00
N364   N     0.68044   0.63061   0.78014   0.00000  Uiso   1.00
N365   N     0.59092   0.02020   0.97105   0.00000  Uiso   1.00
N366   N     0.06643   0.14914   0.80104   0.00000  Uiso   1.00
N367   N     0.74560   0.79265   0.75603   0.00000  Uiso   1.00
N368   N     0.65609   0.18225   0.94694   0.00000  Uiso   1.00
