data_job_02084
_audit_creation_date              2018-12-19
_audit_creation_method            'Materials Studio'
_symmetry_space_group_name_H-M    'P1'
_symmetry_Int_Tables_number       1
_symmetry_cell_setting            triclinic
loop_
_symmetry_equiv_pos_as_xyz
  x,y,z
_cell_length_a                    27.0951
_cell_length_b                    9.2896
_cell_length_c                    23.3463
_cell_angle_alpha                 90.0000
_cell_angle_beta                  90.0000
_cell_angle_gamma                 90.0000
loop_
_atom_site_label
_atom_site_type_symbol
_atom_site_fract_x
_atom_site_fract_y
_atom_site_fract_z
_atom_site_U_iso_or_equiv
_atom_site_adp_type
_atom_site_occupancy
C1     C     0.82399   0.72975   0.02487   0.00000  Uiso   1.00
C2     C     0.84013   0.82393   0.97475   0.00000  Uiso   1.00
C3     C     0.81529   0.83861   0.92310   0.00000  Uiso   1.00
C4     C     0.83608   0.92997   0.88269   0.00000  Uiso   1.00
C5     C     0.85445   0.06489   0.80320   0.00000  Uiso   1.00
C6     C     0.86714   0.62893   0.03710   0.00000  Uiso   1.00
C7     C     0.86500   0.47968   0.03788   0.00000  Uiso   1.00
C8     C     0.90853   0.40689   0.04996   0.00000  Uiso   1.00
C9     C     0.96883   0.23909   0.06731   0.00000  Uiso   1.00
C10    C     0.82029   0.82966   0.07651   0.00000  Uiso   1.00
C11    C     0.77876   0.84916   0.11044   0.00000  Uiso   1.00
C12    C     0.78285   0.94535   0.15571   0.00000  Uiso   1.00
C13    C     0.77040   0.08921   0.23425   0.00000  Uiso   1.00
C14    C     0.90510   0.86587   0.04495   0.00000  Uiso   1.00
C15    C     0.88418   0.89786   0.98566   0.00000  Uiso   1.00
C16    C     0.90502   0.98922   0.94532   0.00000  Uiso   1.00
C17    C     0.88021   0.00404   0.89362   0.00000  Uiso   1.00
C18    C     0.91119   0.70286   0.04801   0.00000  Uiso   1.00
C19    C     0.95473   0.63028   0.06010   0.00000  Uiso   1.00
C20    C     0.95266   0.48095   0.06089   0.00000  Uiso   1.00
C21    C     0.86434   0.90360   0.08742   0.00000  Uiso   1.00
C22    C     0.86849   0.99977   0.13265   0.00000  Uiso   1.00
C23    C     0.82698   0.01941   0.16664   0.00000  Uiso   1.00
H24    H     0.78970   0.67218   0.01637   0.00000  Uiso   1.00
H25    H     0.78120   0.78137   0.91467   0.00000  Uiso   1.00
H26    H     0.83091   0.42249   0.02944   0.00000  Uiso   1.00
H27    H     0.74468   0.79192   0.10198   0.00000  Uiso   1.00
H28    H     0.79122   0.93498   0.80672   0.00000  Uiso   1.00
H29    H     0.89602   0.17828   0.04872   0.00000  Uiso   1.00
H30    H     0.71420   0.95729   0.20170   0.00000  Uiso   1.00
H31    H     0.93939   0.92343   0.05345   0.00000  Uiso   1.00
H32    H     0.93911   0.04642   0.95378   0.00000  Uiso   1.00
H33    H     0.98881   0.68753   0.06854   0.00000  Uiso   1.00
H34    H     0.90259   0.05696   0.14108   0.00000  Uiso   1.00
H35    H     0.91938   0.15010   0.83845   0.00000  Uiso   1.00
H36    H     0.02418   0.39339   0.08047   0.00000  Uiso   1.00
H37    H     0.84236   0.17241   0.23344   0.00000  Uiso   1.00
O38    O     0.85242   0.11887   0.75634   0.00000  Uiso   1.00
O39    O     0.98991   0.12610   0.07386   0.00000  Uiso   1.00
O40    O     0.75136   0.14815   0.27456   0.00000  Uiso   1.00
N41    N     0.82141   0.96876   0.82787   0.00000  Uiso   1.00
N42    N     0.91940   0.26128   0.05412   0.00000  Uiso   1.00
N43    N     0.74941   0.98956   0.19715   0.00000  Uiso   1.00
N44    N     0.89038   0.08451   0.84495   0.00000  Uiso   1.00
N45    N     0.98836   0.37703   0.07120   0.00000  Uiso   1.00
N46    N     0.81838   0.10532   0.21423   0.00000  Uiso   1.00
C47    C     0.67601   0.27025   0.52487   0.00000  Uiso   1.00
C48    C     0.65987   0.17607   0.47475   0.00000  Uiso   1.00
C49    C     0.68471   0.16139   0.42310   0.00000  Uiso   1.00
C50    C     0.66392   0.07003   0.38269   0.00000  Uiso   1.00
C51    C     0.64555   0.93511   0.30320   0.00000  Uiso   1.00
C52    C     0.63286   0.37107   0.53710   0.00000  Uiso   1.00
C53    C     0.63500   0.52032   0.53788   0.00000  Uiso   1.00
C54    C     0.59147   0.59311   0.54996   0.00000  Uiso   1.00
C55    C     0.53117   0.76091   0.56731   0.00000  Uiso   1.00
C56    C     0.67971   0.17034   0.57651   0.00000  Uiso   1.00
C57    C     0.72124   0.15084   0.61044   0.00000  Uiso   1.00
C58    C     0.71715   0.05465   0.65571   0.00000  Uiso   1.00
C59    C     0.72960   0.91079   0.73425   0.00000  Uiso   1.00
C60    C     0.59490   0.13413   0.54495   0.00000  Uiso   1.00
C61    C     0.61582   0.10214   0.48566   0.00000  Uiso   1.00
C62    C     0.59498   0.01078   0.44532   0.00000  Uiso   1.00
C63    C     0.61979   0.99596   0.39362   0.00000  Uiso   1.00
C64    C     0.58881   0.29714   0.54801   0.00000  Uiso   1.00
C65    C     0.54527   0.36972   0.56010   0.00000  Uiso   1.00
C66    C     0.54734   0.51905   0.56089   0.00000  Uiso   1.00
C67    C     0.63566   0.09640   0.58742   0.00000  Uiso   1.00
C68    C     0.63151   0.00023   0.63265   0.00000  Uiso   1.00
C69    C     0.67302   0.98059   0.66664   0.00000  Uiso   1.00
H70    H     0.71030   0.32782   0.51637   0.00000  Uiso   1.00
H71    H     0.71880   0.21863   0.41467   0.00000  Uiso   1.00
H72    H     0.66909   0.57751   0.52944   0.00000  Uiso   1.00
H73    H     0.75532   0.20808   0.60198   0.00000  Uiso   1.00
H74    H     0.70878   0.06502   0.30672   0.00000  Uiso   1.00
H75    H     0.60398   0.82172   0.54872   0.00000  Uiso   1.00
H76    H     0.78580   0.04271   0.70170   0.00000  Uiso   1.00
H77    H     0.56061   0.07657   0.55345   0.00000  Uiso   1.00
H78    H     0.56089   0.95358   0.45378   0.00000  Uiso   1.00
H79    H     0.51119   0.31247   0.56854   0.00000  Uiso   1.00
H80    H     0.59741   0.94304   0.64108   0.00000  Uiso   1.00
H81    H     0.58062   0.84990   0.33845   0.00000  Uiso   1.00
H82    H     0.47582   0.60661   0.58047   0.00000  Uiso   1.00
H83    H     0.65764   0.82759   0.73344   0.00000  Uiso   1.00
O84    O     0.64758   0.88113   0.25634   0.00000  Uiso   1.00
O85    O     0.51009   0.87390   0.57386   0.00000  Uiso   1.00
O86    O     0.74864   0.85185   0.77456   0.00000  Uiso   1.00
N87    N     0.67859   0.03124   0.32787   0.00000  Uiso   1.00
N88    N     0.58060   0.73872   0.55412   0.00000  Uiso   1.00
N89    N     0.75059   0.01044   0.69715   0.00000  Uiso   1.00
N90    N     0.60962   0.91549   0.34495   0.00000  Uiso   1.00
N91    N     0.51164   0.62297   0.57120   0.00000  Uiso   1.00
N92    N     0.68162   0.89468   0.71423   0.00000  Uiso   1.00
C93    C     0.17601   0.22975   0.47513   0.00000  Uiso   1.00
C94    C     0.15987   0.32393   0.52525   0.00000  Uiso   1.00
C95    C     0.18471   0.33861   0.57690   0.00000  Uiso   1.00
C96    C     0.16392   0.42997   0.61731   0.00000  Uiso   1.00
C97    C     0.14555   0.56489   0.69680   0.00000  Uiso   1.00
C98    C     0.13286   0.12893   0.46290   0.00000  Uiso   1.00
C99    C     0.13500   0.97968   0.46212   0.00000  Uiso   1.00
C100   C     0.09147   0.90689   0.45004   0.00000  Uiso   1.00
C101   C     0.03117   0.73909   0.43269   0.00000  Uiso   1.00
C102   C     0.17971   0.32966   0.42349   0.00000  Uiso   1.00
C103   C     0.22124   0.34916   0.38956   0.00000  Uiso   1.00
C104   C     0.21715   0.44535   0.34429   0.00000  Uiso   1.00
C105   C     0.22960   0.58921   0.26575   0.00000  Uiso   1.00
C106   C     0.09490   0.36587   0.45505   0.00000  Uiso   1.00
C107   C     0.11582   0.39786   0.51434   0.00000  Uiso   1.00
C108   C     0.09498   0.48922   0.55468   0.00000  Uiso   1.00
C109   C     0.11979   0.50404   0.60638   0.00000  Uiso   1.00
C110   C     0.08881   0.20286   0.45199   0.00000  Uiso   1.00
C111   C     0.04527   0.13028   0.43990   0.00000  Uiso   1.00
C112   C     0.04734   0.98095   0.43911   0.00000  Uiso   1.00
C113   C     0.13566   0.40360   0.41258   0.00000  Uiso   1.00
C114   C     0.13151   0.49977   0.36735   0.00000  Uiso   1.00
C115   C     0.17302   0.51941   0.33336   0.00000  Uiso   1.00
H116   H     0.21030   0.17218   0.48363   0.00000  Uiso   1.00
H117   H     0.21880   0.28137   0.58533   0.00000  Uiso   1.00
H118   H     0.16909   0.92249   0.47056   0.00000  Uiso   1.00
H119   H     0.25532   0.29192   0.39802   0.00000  Uiso   1.00
H120   H     0.20878   0.43498   0.69328   0.00000  Uiso   1.00
H121   H     0.10398   0.67828   0.45128   0.00000  Uiso   1.00
H122   H     0.28580   0.45729   0.29830   0.00000  Uiso   1.00
H123   H     0.06061   0.42343   0.44655   0.00000  Uiso   1.00
H124   H     0.06089   0.54642   0.54622   0.00000  Uiso   1.00
H125   H     0.01119   0.18753   0.43146   0.00000  Uiso   1.00
H126   H     0.09741   0.55696   0.35892   0.00000  Uiso   1.00
H127   H     0.08062   0.65010   0.66155   0.00000  Uiso   1.00
H128   H     0.97582   0.89339   0.41953   0.00000  Uiso   1.00
H129   H     0.15764   0.67241   0.26656   0.00000  Uiso   1.00
O130   O     0.14758   0.61887   0.74366   0.00000  Uiso   1.00
O131   O     0.01009   0.62610   0.42614   0.00000  Uiso   1.00
O132   O     0.24864   0.64815   0.22544   0.00000  Uiso   1.00
N133   N     0.17859   0.46876   0.67213   0.00000  Uiso   1.00
N134   N     0.08060   0.76128   0.44588   0.00000  Uiso   1.00
N135   N     0.25059   0.48956   0.30285   0.00000  Uiso   1.00
N136   N     0.10962   0.58451   0.65505   0.00000  Uiso   1.00
N137   N     0.01164   0.87703   0.42880   0.00000  Uiso   1.00
N138   N     0.18162   0.60532   0.28577   0.00000  Uiso   1.00
C139   C     0.32399   0.77025   0.97513   0.00000  Uiso   1.00
C140   C     0.34013   0.67607   0.02525   0.00000  Uiso   1.00
C141   C     0.31529   0.66139   0.07690   0.00000  Uiso   1.00
C142   C     0.33608   0.57003   0.11731   0.00000  Uiso   1.00
C143   C     0.35445   0.43511   0.19680   0.00000  Uiso   1.00
C144   C     0.36714   0.87107   0.96290   0.00000  Uiso   1.00
C145   C     0.36500   0.02032   0.96212   0.00000  Uiso   1.00
C146   C     0.40853   0.09311   0.95004   0.00000  Uiso   1.00
C147   C     0.46883   0.26091   0.93269   0.00000  Uiso   1.00
C148   C     0.32029   0.67034   0.92349   0.00000  Uiso   1.00
C149   C     0.27876   0.65084   0.88956   0.00000  Uiso   1.00
C150   C     0.28285   0.55465   0.84429   0.00000  Uiso   1.00
C151   C     0.27040   0.41079   0.76575   0.00000  Uiso   1.00
C152   C     0.40510   0.63413   0.95505   0.00000  Uiso   1.00
C153   C     0.38418   0.60214   0.01434   0.00000  Uiso   1.00
C154   C     0.40502   0.51078   0.05468   0.00000  Uiso   1.00
C155   C     0.38021   0.49596   0.10638   0.00000  Uiso   1.00
C156   C     0.41119   0.79714   0.95199   0.00000  Uiso   1.00
C157   C     0.45473   0.86972   0.93990   0.00000  Uiso   1.00
C158   C     0.45266   0.01905   0.93911   0.00000  Uiso   1.00
C159   C     0.36434   0.59640   0.91258   0.00000  Uiso   1.00
C160   C     0.36849   0.50023   0.86735   0.00000  Uiso   1.00
C161   C     0.32698   0.48059   0.83336   0.00000  Uiso   1.00
H162   H     0.28970   0.82782   0.98363   0.00000  Uiso   1.00
H163   H     0.28120   0.71863   0.08533   0.00000  Uiso   1.00
H164   H     0.33091   0.07751   0.97056   0.00000  Uiso   1.00
H165   H     0.24468   0.70808   0.89802   0.00000  Uiso   1.00
H166   H     0.29122   0.56502   0.19328   0.00000  Uiso   1.00
H167   H     0.39602   0.32172   0.95128   0.00000  Uiso   1.00
H168   H     0.21420   0.54271   0.79830   0.00000  Uiso   1.00
H169   H     0.43939   0.57657   0.94655   0.00000  Uiso   1.00
H170   H     0.43911   0.45358   0.04622   0.00000  Uiso   1.00
H171   H     0.48881   0.81247   0.93146   0.00000  Uiso   1.00
H172   H     0.40259   0.44304   0.85892   0.00000  Uiso   1.00
H173   H     0.41938   0.34990   0.16155   0.00000  Uiso   1.00
H174   H     0.52418   0.10661   0.91953   0.00000  Uiso   1.00
H175   H     0.34236   0.32759   0.76656   0.00000  Uiso   1.00
O176   O     0.35242   0.38113   0.24366   0.00000  Uiso   1.00
O177   O     0.48991   0.37390   0.92614   0.00000  Uiso   1.00
O178   O     0.25136   0.35185   0.72544   0.00000  Uiso   1.00
N179   N     0.32141   0.53124   0.17213   0.00000  Uiso   1.00
N180   N     0.41940   0.23872   0.94588   0.00000  Uiso   1.00
N181   N     0.24941   0.51044   0.80285   0.00000  Uiso   1.00
N182   N     0.39038   0.41549   0.15505   0.00000  Uiso   1.00
N183   N     0.48836   0.12297   0.92880   0.00000  Uiso   1.00
N184   N     0.31838   0.39468   0.78577   0.00000  Uiso   1.00
C185   C     0.17601   0.27025   0.97513   0.00000  Uiso   1.00
C186   C     0.15987   0.17607   0.02525   0.00000  Uiso   1.00
C187   C     0.18471   0.16139   0.07690   0.00000  Uiso   1.00
C188   C     0.16392   0.07003   0.11731   0.00000  Uiso   1.00
C189   C     0.14555   0.93511   0.19680   0.00000  Uiso   1.00
C190   C     0.13286   0.37107   0.96290   0.00000  Uiso   1.00
C191   C     0.13500   0.52032   0.96212   0.00000  Uiso   1.00
C192   C     0.09147   0.59311   0.95004   0.00000  Uiso   1.00
C193   C     0.03117   0.76091   0.93269   0.00000  Uiso   1.00
C194   C     0.17971   0.17034   0.92349   0.00000  Uiso   1.00
C195   C     0.22124   0.15084   0.88956   0.00000  Uiso   1.00
C196   C     0.21715   0.05465   0.84429   0.00000  Uiso   1.00
C197   C     0.22960   0.91079   0.76575   0.00000  Uiso   1.00
C198   C     0.09490   0.13413   0.95505   0.00000  Uiso   1.00
C199   C     0.11582   0.10214   0.01434   0.00000  Uiso   1.00
C200   C     0.09498   0.01078   0.05468   0.00000  Uiso   1.00
C201   C     0.11979   0.99596   0.10638   0.00000  Uiso   1.00
C202   C     0.08881   0.29714   0.95199   0.00000  Uiso   1.00
C203   C     0.04527   0.36972   0.93990   0.00000  Uiso   1.00
C204   C     0.04734   0.51905   0.93911   0.00000  Uiso   1.00
C205   C     0.13566   0.09640   0.91258   0.00000  Uiso   1.00
C206   C     0.13151   0.00023   0.86735   0.00000  Uiso   1.00
C207   C     0.17302   0.98059   0.83336   0.00000  Uiso   1.00
H208   H     0.21030   0.32782   0.98363   0.00000  Uiso   1.00
H209   H     0.21880   0.21863   0.08533   0.00000  Uiso   1.00
H210   H     0.16909   0.57751   0.97056   0.00000  Uiso   1.00
H211   H     0.25532   0.20808   0.89802   0.00000  Uiso   1.00
H212   H     0.20878   0.06502   0.19328   0.00000  Uiso   1.00
H213   H     0.10398   0.82172   0.95128   0.00000  Uiso   1.00
H214   H     0.28580   0.04271   0.79830   0.00000  Uiso   1.00
H215   H     0.06061   0.07657   0.94655   0.00000  Uiso   1.00
H216   H     0.06089   0.95358   0.04622   0.00000  Uiso   1.00
H217   H     0.01119   0.31247   0.93146   0.00000  Uiso   1.00
H218   H     0.09741   0.94304   0.85892   0.00000  Uiso   1.00
H219   H     0.08062   0.84990   0.16155   0.00000  Uiso   1.00
H220   H     0.97582   0.60661   0.91953   0.00000  Uiso   1.00
H221   H     0.15764   0.82759   0.76656   0.00000  Uiso   1.00
O222   O     0.14758   0.88113   0.24366   0.00000  Uiso   1.00
O223   O     0.01009   0.87390   0.92614   0.00000  Uiso   1.00
O224   O     0.24864   0.85185   0.72544   0.00000  Uiso   1.00
N225   N     0.17859   0.03124   0.17213   0.00000  Uiso   1.00
N226   N     0.08060   0.73872   0.94588   0.00000  Uiso   1.00
N227   N     0.25059   0.01044   0.80285   0.00000  Uiso   1.00
N228   N     0.10962   0.91549   0.15505   0.00000  Uiso   1.00
N229   N     0.01164   0.62297   0.92880   0.00000  Uiso   1.00
N230   N     0.18162   0.89468   0.78577   0.00000  Uiso   1.00
C231   C     0.32399   0.72975   0.47513   0.00000  Uiso   1.00
C232   C     0.34013   0.82393   0.52525   0.00000  Uiso   1.00
C233   C     0.31529   0.83861   0.57690   0.00000  Uiso   1.00
C234   C     0.33608   0.92997   0.61731   0.00000  Uiso   1.00
C235   C     0.35445   0.06489   0.69680   0.00000  Uiso   1.00
C236   C     0.36714   0.62893   0.46290   0.00000  Uiso   1.00
C237   C     0.36500   0.47968   0.46212   0.00000  Uiso   1.00
C238   C     0.40853   0.40689   0.45004   0.00000  Uiso   1.00
C239   C     0.46883   0.23909   0.43269   0.00000  Uiso   1.00
C240   C     0.32029   0.82966   0.42349   0.00000  Uiso   1.00
C241   C     0.27876   0.84916   0.38956   0.00000  Uiso   1.00
C242   C     0.28285   0.94535   0.34429   0.00000  Uiso   1.00
C243   C     0.27040   0.08921   0.26575   0.00000  Uiso   1.00
C244   C     0.40510   0.86587   0.45505   0.00000  Uiso   1.00
C245   C     0.38418   0.89786   0.51434   0.00000  Uiso   1.00
C246   C     0.40502   0.98922   0.55468   0.00000  Uiso   1.00
C247   C     0.38021   0.00404   0.60638   0.00000  Uiso   1.00
C248   C     0.41119   0.70286   0.45199   0.00000  Uiso   1.00
C249   C     0.45473   0.63028   0.43990   0.00000  Uiso   1.00
C250   C     0.45266   0.48095   0.43911   0.00000  Uiso   1.00
C251   C     0.36434   0.90360   0.41258   0.00000  Uiso   1.00
C252   C     0.36849   0.99977   0.36735   0.00000  Uiso   1.00
C253   C     0.32698   0.01941   0.33336   0.00000  Uiso   1.00
H254   H     0.28970   0.67218   0.48363   0.00000  Uiso   1.00
H255   H     0.28120   0.78137   0.58533   0.00000  Uiso   1.00
H256   H     0.33091   0.42249   0.47056   0.00000  Uiso   1.00
H257   H     0.24468   0.79192   0.39802   0.00000  Uiso   1.00
H258   H     0.29122   0.93498   0.69328   0.00000  Uiso   1.00
H259   H     0.39602   0.17828   0.45128   0.00000  Uiso   1.00
H260   H     0.21420   0.95729   0.29830   0.00000  Uiso   1.00
H261   H     0.43939   0.92343   0.44655   0.00000  Uiso   1.00
H262   H     0.43911   0.04642   0.54622   0.00000  Uiso   1.00
H263   H     0.48881   0.68753   0.43146   0.00000  Uiso   1.00
H264   H     0.40259   0.05696   0.35892   0.00000  Uiso   1.00
H265   H     0.41938   0.15010   0.66155   0.00000  Uiso   1.00
H266   H     0.52418   0.39339   0.41953   0.00000  Uiso   1.00
H267   H     0.34236   0.17241   0.26656   0.00000  Uiso   1.00
O268   O     0.35242   0.11887   0.74366   0.00000  Uiso   1.00
O269   O     0.48991   0.12610   0.42614   0.00000  Uiso   1.00
O270   O     0.25136   0.14815   0.22544   0.00000  Uiso   1.00
N271   N     0.32141   0.96876   0.67213   0.00000  Uiso   1.00
N272   N     0.41940   0.26128   0.44588   0.00000  Uiso   1.00
N273   N     0.24941   0.98956   0.30285   0.00000  Uiso   1.00
N274   N     0.39038   0.08451   0.65505   0.00000  Uiso   1.00
N275   N     0.48836   0.37703   0.42880   0.00000  Uiso   1.00
N276   N     0.31838   0.10532   0.28577   0.00000  Uiso   1.00
C277   C     0.82399   0.77025   0.52487   0.00000  Uiso   1.00
C278   C     0.84013   0.67607   0.47475   0.00000  Uiso   1.00
C279   C     0.81529   0.66139   0.42310   0.00000  Uiso   1.00
C280   C     0.83608   0.57003   0.38269   0.00000  Uiso   1.00
C281   C     0.85445   0.43511   0.30320   0.00000  Uiso   1.00
C282   C     0.86714   0.87107   0.53710   0.00000  Uiso   1.00
C283   C     0.86500   0.02032   0.53788   0.00000  Uiso   1.00
C284   C     0.90853   0.09311   0.54996   0.00000  Uiso   1.00
C285   C     0.96883   0.26091   0.56731   0.00000  Uiso   1.00
C286   C     0.82029   0.67034   0.57651   0.00000  Uiso   1.00
C287   C     0.77876   0.65084   0.61044   0.00000  Uiso   1.00
C288   C     0.78285   0.55465   0.65571   0.00000  Uiso   1.00
C289   C     0.77040   0.41079   0.73425   0.00000  Uiso   1.00
C290   C     0.90510   0.63413   0.54495   0.00000  Uiso   1.00
C291   C     0.88418   0.60214   0.48566   0.00000  Uiso   1.00
C292   C     0.90502   0.51078   0.44532   0.00000  Uiso   1.00
C293   C     0.88021   0.49596   0.39362   0.00000  Uiso   1.00
C294   C     0.91119   0.79714   0.54801   0.00000  Uiso   1.00
C295   C     0.95473   0.86972   0.56010   0.00000  Uiso   1.00
C296   C     0.95266   0.01905   0.56089   0.00000  Uiso   1.00
C297   C     0.86434   0.59640   0.58742   0.00000  Uiso   1.00
C298   C     0.86849   0.50023   0.63265   0.00000  Uiso   1.00
C299   C     0.82698   0.48059   0.66664   0.00000  Uiso   1.00
H300   H     0.78970   0.82782   0.51637   0.00000  Uiso   1.00
H301   H     0.78120   0.71863   0.41467   0.00000  Uiso   1.00
H302   H     0.83091   0.07751   0.52944   0.00000  Uiso   1.00
H303   H     0.74468   0.70808   0.60198   0.00000  Uiso   1.00
H304   H     0.79122   0.56502   0.30672   0.00000  Uiso   1.00
H305   H     0.89602   0.32172   0.54872   0.00000  Uiso   1.00
H306   H     0.71420   0.54271   0.70170   0.00000  Uiso   1.00
H307   H     0.93939   0.57657   0.55345   0.00000  Uiso   1.00
H308   H     0.93911   0.45358   0.45378   0.00000  Uiso   1.00
H309   H     0.98881   0.81247   0.56854   0.00000  Uiso   1.00
H310   H     0.90259   0.44304   0.64108   0.00000  Uiso   1.00
H311   H     0.91938   0.34990   0.33845   0.00000  Uiso   1.00
H312   H     0.02418   0.10661   0.58047   0.00000  Uiso   1.00
H313   H     0.84236   0.32759   0.73344   0.00000  Uiso   1.00
O314   O     0.85242   0.38113   0.25634   0.00000  Uiso   1.00
O315   O     0.98991   0.37390   0.57386   0.00000  Uiso   1.00
O316   O     0.75136   0.35185   0.77456   0.00000  Uiso   1.00
N317   N     0.82141   0.53124   0.32787   0.00000  Uiso   1.00
N318   N     0.91940   0.23872   0.55412   0.00000  Uiso   1.00
N319   N     0.74941   0.51044   0.69715   0.00000  Uiso   1.00
N320   N     0.89038   0.41549   0.34495   0.00000  Uiso   1.00
N321   N     0.98836   0.12297   0.57120   0.00000  Uiso   1.00
N322   N     0.81838   0.39468   0.71423   0.00000  Uiso   1.00
C323   C     0.67601   0.22975   0.02487   0.00000  Uiso   1.00
C324   C     0.65987   0.32393   0.97475   0.00000  Uiso   1.00
C325   C     0.68471   0.33861   0.92310   0.00000  Uiso   1.00
C326   C     0.66392   0.42997   0.88269   0.00000  Uiso   1.00
C327   C     0.64555   0.56489   0.80320   0.00000  Uiso   1.00
C328   C     0.63286   0.12893   0.03710   0.00000  Uiso   1.00
C329   C     0.63500   0.97968   0.03788   0.00000  Uiso   1.00
C330   C     0.59147   0.90689   0.04996   0.00000  Uiso   1.00
C331   C     0.53117   0.73909   0.06731   0.00000  Uiso   1.00
C332   C     0.67971   0.32966   0.07651   0.00000  Uiso   1.00
C333   C     0.72124   0.34916   0.11044   0.00000  Uiso   1.00
C334   C     0.71715   0.44535   0.15571   0.00000  Uiso   1.00
C335   C     0.72960   0.58921   0.23425   0.00000  Uiso   1.00
C336   C     0.59490   0.36587   0.04495   0.00000  Uiso   1.00
C337   C     0.61582   0.39786   0.98566   0.00000  Uiso   1.00
C338   C     0.59498   0.48922   0.94532   0.00000  Uiso   1.00
C339   C     0.61979   0.50404   0.89362   0.00000  Uiso   1.00
C340   C     0.58881   0.20286   0.04801   0.00000  Uiso   1.00
C341   C     0.54527   0.13028   0.06010   0.00000  Uiso   1.00
C342   C     0.54734   0.98095   0.06089   0.00000  Uiso   1.00
C343   C     0.63566   0.40360   0.08742   0.00000  Uiso   1.00
C344   C     0.63151   0.49977   0.13265   0.00000  Uiso   1.00
C345   C     0.67302   0.51941   0.16664   0.00000  Uiso   1.00
H346   H     0.71030   0.17218   0.01637   0.00000  Uiso   1.00
H347   H     0.71880   0.28137   0.91467   0.00000  Uiso   1.00
H348   H     0.66909   0.92249   0.02944   0.00000  Uiso   1.00
H349   H     0.75532   0.29192   0.10198   0.00000  Uiso   1.00
H350   H     0.70878   0.43498   0.80672   0.00000  Uiso   1.00
H351   H     0.60398   0.67828   0.04872   0.00000  Uiso   1.00
H352   H     0.78580   0.45729   0.20170   0.00000  Uiso   1.00
H353   H     0.56061   0.42343   0.05345   0.00000  Uiso   1.00
H354   H     0.56089   0.54642   0.95378   0.00000  Uiso   1.00
H355   H     0.51119   0.18753   0.06854   0.00000  Uiso   1.00
H356   H     0.59741   0.55696   0.14108   0.00000  Uiso   1.00
H357   H     0.58062   0.65010   0.83845   0.00000  Uiso   1.00
H358   H     0.47582   0.89339   0.08047   0.00000  Uiso   1.00
H359   H     0.65764   0.67241   0.23344   0.00000  Uiso   1.00
O360   O     0.64758   0.61887   0.75634   0.00000  Uiso   1.00
O361   O     0.51009   0.62610   0.07386   0.00000  Uiso   1.00
O362   O     0.74864   0.64815   0.27456   0.00000  Uiso   1.00
N363   N     0.67859   0.46876   0.82787   0.00000  Uiso   1.00
N364   N     0.58060   0.76128   0.05412   0.00000  Uiso   1.00
N365   N     0.75059   0.48956   0.19715   0.00000  Uiso   1.00
N366   N     0.60962   0.58451   0.84495   0.00000  Uiso   1.00
N367   N     0.51164   0.87703   0.07120   0.00000  Uiso   1.00
N368   N     0.68162   0.60532   0.21423   0.00000  Uiso   1.00
