data_job_06548
_audit_creation_date              2018-12-19
_audit_creation_method            'Materials Studio'
_symmetry_space_group_name_H-M    'P1'
_symmetry_Int_Tables_number       1
_symmetry_cell_setting            triclinic
loop_
_symmetry_equiv_pos_as_xyz
  x,y,z
_cell_length_a                    21.2408
_cell_length_b                    18.2425
_cell_length_c                    18.2648
_cell_angle_alpha                 85.2520
_cell_angle_beta                  96.3081
_cell_angle_gamma                 95.6939
loop_
_atom_site_label
_atom_site_type_symbol
_atom_site_fract_x
_atom_site_fract_y
_atom_site_fract_z
_atom_site_U_iso_or_equiv
_atom_site_adp_type
_atom_site_occupancy
C1     C     0.23670   0.45570   0.73397   0.00000  Uiso   1.00
C2     C     0.22396   0.53528   0.70943   0.00000  Uiso   1.00
C3     C     0.16447   0.56101   0.69151   0.00000  Uiso   1.00
C4     C     0.16289   0.63573   0.67033   0.00000  Uiso   1.00
C5     C     0.13461   0.75212   0.63266   0.00000  Uiso   1.00
C6     C     0.27991   0.43286   0.68012   0.00000  Uiso   1.00
C7     C     0.26745   0.37247   0.63758   0.00000  Uiso   1.00
C8     C     0.31298   0.36097   0.59173   0.00000  Uiso   1.00
C9     C     0.37158   0.31832   0.50861   0.00000  Uiso   1.00
C10    C     0.27680   0.45852   0.80841   0.00000  Uiso   1.00
C11    C     0.26175   0.41969   0.87372   0.00000  Uiso   1.00
C12    C     0.30467   0.42978   0.93588   0.00000  Uiso   1.00
C13    C     0.35845   0.42696   0.05194   0.00000  Uiso   1.00
C14    C     0.33970   0.54263   0.72822   0.00000  Uiso   1.00
C15    C     0.27991   0.58250   0.70630   0.00000  Uiso   1.00
C16    C     0.27843   0.65720   0.68514   0.00000  Uiso   1.00
C17    C     0.21894   0.68304   0.66720   0.00000  Uiso   1.00
C18    C     0.33586   0.48008   0.67700   0.00000  Uiso   1.00
C19    C     0.38142   0.46866   0.63121   0.00000  Uiso   1.00
C20    C     0.36903   0.40828   0.58860   0.00000  Uiso   1.00
C21    C     0.33275   0.50574   0.80528   0.00000  Uiso   1.00
C22    C     0.37571   0.51588   0.86735   0.00000  Uiso   1.00
C23    C     0.36072   0.47708   0.93275   0.00000  Uiso   1.00
H24    H     0.19314   0.41893   0.73640   0.00000  Uiso   1.00
H25    H     0.12118   0.52445   0.69393   0.00000  Uiso   1.00
H26    H     0.22416   0.33594   0.64001   0.00000  Uiso   1.00
H27    H     0.21845   0.38315   0.87612   0.00000  Uiso   1.00
H28    H     0.06608   0.66226   0.64544   0.00000  Uiso   1.00
H29    H     0.28321   0.26476   0.53177   0.00000  Uiso   1.00
H30    H     0.27118   0.36431   0.02965   0.00000  Uiso   1.00
H31    H     0.38326   0.57939   0.72578   0.00000  Uiso   1.00
H32    H     0.32174   0.69373   0.68273   0.00000  Uiso   1.00
H33    H     0.42471   0.50521   0.62880   0.00000  Uiso   1.00
H34    H     0.41900   0.55242   0.86491   0.00000  Uiso   1.00
H35    H     0.22885   0.79965   0.63634   0.00000  Uiso   1.00
H36    H     0.44599   0.40214   0.52267   0.00000  Uiso   1.00
H37    H     0.43396   0.50170   0.02055   0.00000  Uiso   1.00
O38    O     0.10356   0.80327   0.61274   0.00000  Uiso   1.00
O39    O     0.38844   0.28175   0.46361   0.00000  Uiso   1.00
O40    O     0.37265   0.41237   0.11682   0.00000  Uiso   1.00
N41    N     0.11283   0.67891   0.64922   0.00000  Uiso   1.00
N42    N     0.31583   0.30727   0.54293   0.00000  Uiso   1.00
N43    N     0.30459   0.40033   0.00840   0.00000  Uiso   1.00
N44    N     0.20042   0.75284   0.64433   0.00000  Uiso   1.00
N45    N     0.40342   0.38120   0.53804   0.00000  Uiso   1.00
N46    N     0.39218   0.47426   0.00351   0.00000  Uiso   1.00
C47    C     0.62482   0.02096   0.69983   0.00000  Uiso   1.00
C48    C     0.62238   0.98302   0.77720   0.00000  Uiso   1.00
C49    C     0.62870   0.90873   0.79658   0.00000  Uiso   1.00
C50    C     0.62507   0.88473   0.87027   0.00000  Uiso   1.00
C51    C     0.62271   0.81842   0.98242   0.00000  Uiso   1.00
C52    C     0.56266   0.05701   0.68174   0.00000  Uiso   1.00
C53    C     0.51877   0.04495   0.62085   0.00000  Uiso   1.00
C54    C     0.46487   0.08325   0.61418   0.00000  Uiso   1.00
C55    C     0.36982   0.13185   0.57810   0.00000  Uiso   1.00
C56    C     0.67729   0.08416   0.70663   0.00000  Uiso   1.00
C57    C     0.72978   0.09494   0.66666   0.00000  Uiso   1.00
C58    C     0.77238   0.15611   0.68093   0.00000  Uiso   1.00
C59    C     0.85531   0.24687   0.68349   0.00000  Uiso   1.00
C60    C     0.60714   0.11043   0.79623   0.00000  Uiso   1.00
C61    C     0.61278   0.03162   0.82955   0.00000  Uiso   1.00
C62    C     0.60914   0.00772   0.90323   0.00000  Uiso   1.00
C63    C     0.61545   0.93342   0.92272   0.00000  Uiso   1.00
C64    C     0.55306   0.10561   0.73409   0.00000  Uiso   1.00
C65    C     0.49921   0.14394   0.72750   0.00000  Uiso   1.00
C66    C     0.45525   0.13193   0.66663   0.00000  Uiso   1.00
C67    C     0.66769   0.13276   0.75899   0.00000  Uiso   1.00
C68    C     0.71022   0.19393   0.77331   0.00000  Uiso   1.00
C69    C     0.76276   0.20480   0.73338   0.00000  Uiso   1.00
H70    H     0.63229   0.98313   0.65907   0.00000  Uiso   1.00
H71    H     0.63613   0.87114   0.75604   0.00000  Uiso   1.00
H72    H     0.52622   0.00734   0.58034   0.00000  Uiso   1.00
H73    H     0.73719   0.05732   0.62614   0.00000  Uiso   1.00
H74    H     0.63612   0.76841   0.88664   0.00000  Uiso   1.00
H75    H     0.40438   0.05562   0.51615   0.00000  Uiso   1.00
H76    H     0.84926   0.16101   0.61273   0.00000  Uiso   1.00
H77    H     0.59966   0.14827   0.83699   0.00000  Uiso   1.00
H78    H     0.60171   0.04534   0.94374   0.00000  Uiso   1.00
H79    H     0.49180   0.18154   0.76803   0.00000  Uiso   1.00
H80    H     0.70277   0.23152   0.81384   0.00000  Uiso   1.00
H81    H     0.60818   0.90980   0.03898   0.00000  Uiso   1.00
H82    H     0.37644   0.19701   0.66848   0.00000  Uiso   1.00
H83    H     0.82132   0.30240   0.76507   0.00000  Uiso   1.00
O84    O     0.62406   0.76841   0.02981   0.00000  Uiso   1.00
O85    O     0.32004   0.14523   0.54373   0.00000  Uiso   1.00
O86    O     0.90371   0.28350   0.67045   0.00000  Uiso   1.00
N87    N     0.62927   0.81581   0.90785   0.00000  Uiso   1.00
N88    N     0.41261   0.08433   0.56147   0.00000  Uiso   1.00
N89    N     0.82853   0.18287   0.65175   0.00000  Uiso   1.00
N90    N     0.61424   0.89189   0.98982   0.00000  Uiso   1.00
N91    N     0.39758   0.16041   0.64344   0.00000  Uiso   1.00
N92    N     0.81349   0.25895   0.73372   0.00000  Uiso   1.00
C93    C     0.55732   0.51423   0.23285   0.00000  Uiso   1.00
C94    C     0.61845   0.51258   0.19658   0.00000  Uiso   1.00
C95    C     0.62544   0.52917   0.12222   0.00000  Uiso   1.00
C96    C     0.68522   0.52440   0.09991   0.00000  Uiso   1.00
C97    C     0.77238   0.52494   0.03595   0.00000  Uiso   1.00
C98    C     0.54432   0.43747   0.27096   0.00000  Uiso   1.00
C99    C     0.48898   0.39093   0.25913   0.00000  Uiso   1.00
C100   C     0.48636   0.32294   0.29944   0.00000  Uiso   1.00
C101   C     0.45841   0.20690   0.35098   0.00000  Uiso   1.00
C102   C     0.57344   0.56659   0.29448   0.00000  Uiso   1.00
C103   C     0.54257   0.62860   0.30244   0.00000  Uiso   1.00
C104   C     0.56447   0.66930   0.36256   0.00000  Uiso   1.00
C105   C     0.58174   0.75374   0.45062   0.00000  Uiso   1.00
C106   C     0.65108   0.47624   0.32548   0.00000  Uiso   1.00
C107   C     0.66937   0.49194   0.24690   0.00000  Uiso   1.00
C108   C     0.72916   0.48714   0.22470   0.00000  Uiso   1.00
C109   C     0.73624   0.50373   0.15032   0.00000  Uiso   1.00
C110   C     0.59524   0.41684   0.32127   0.00000  Uiso   1.00
C111   C     0.59270   0.34890   0.36161   0.00000  Uiso   1.00
C112   C     0.53737   0.30226   0.34984   0.00000  Uiso   1.00
C113   C     0.62437   0.54596   0.34479   0.00000  Uiso   1.00
C114   C     0.64631   0.58657   0.40492   0.00000  Uiso   1.00
C115   C     0.61548   0.64863   0.41297   0.00000  Uiso   1.00
H116   H     0.51768   0.53028   0.19368   0.00000  Uiso   1.00
H117   H     0.58601   0.54513   0.08330   0.00000  Uiso   1.00
H118   H     0.44957   0.40691   0.22019   0.00000  Uiso   1.00
H119   H     0.50317   0.64455   0.26349   0.00000  Uiso   1.00
H120   H     0.68423   0.55246   0.98310   0.00000  Uiso   1.00
H121   H     0.39653   0.26104   0.27177   0.00000  Uiso   1.00
H122   H     0.50954   0.76213   0.36308   0.00000  Uiso   1.00
H123   H     0.69072   0.46017   0.36465   0.00000  Uiso   1.00
H124   H     0.76856   0.47118   0.26365   0.00000  Uiso   1.00
H125   H     0.63212   0.33296   0.40054   0.00000  Uiso   1.00
H126   H     0.68572   0.57059   0.44384   0.00000  Uiso   1.00
H127   H     0.83239   0.49243   0.12948   0.00000  Uiso   1.00
H128   H     0.54469   0.20101   0.41815   0.00000  Uiso   1.00
H129   H     0.65771   0.70210   0.50946   0.00000  Uiso   1.00
O130   O     0.80639   0.53093   0.98676   0.00000  Uiso   1.00
O131   O     0.42893   0.14859   0.36549   0.00000  Uiso   1.00
O132   O     0.57721   0.80602   0.48528   0.00000  Uiso   1.00
N133   N     0.70842   0.53684   0.03142   0.00000  Uiso   1.00
N134   N     0.43944   0.26437   0.30130   0.00000  Uiso   1.00
N135   N     0.54509   0.73284   0.38667   0.00000  Uiso   1.00
N136   N     0.78815   0.50454   0.11018   0.00000  Uiso   1.00
N137   N     0.51917   0.23207   0.38006   0.00000  Uiso   1.00
N138   N     0.62482   0.70054   0.46544   0.00000  Uiso   1.00
C139   C     0.70840   0.00406   0.16395   0.00000  Uiso   1.00
C140   C     0.66466   0.98616   0.22511   0.00000  Uiso   1.00
C141   C     0.59869   0.98125   0.21567   0.00000  Uiso   1.00
C142   C     0.56733   0.96426   0.27857   0.00000  Uiso   1.00
C143   C     0.49431   0.93820   0.36291   0.00000  Uiso   1.00
C144   C     0.75009   0.94011   0.16830   0.00000  Uiso   1.00
C145   C     0.75595   0.89649   0.11110   0.00000  Uiso   1.00
C146   C     0.79651   0.84075   0.12617   0.00000  Uiso   1.00
C147   C     0.85616   0.74322   0.12231   0.00000  Uiso   1.00
C148   C     0.75270   0.07122   0.18647   0.00000  Uiso   1.00
C149   C     0.76077   0.13784   0.14455   0.00000  Uiso   1.00
C150   C     0.80355   0.19248   0.17492   0.00000  Uiso   1.00
C151   C     0.86725   0.29853   0.19928   0.00000  Uiso   1.00
C152   C     0.77003   0.98263   0.29242   0.00000  Uiso   1.00
C153   C     0.69813   0.97452   0.29489   0.00000  Uiso   1.00
C154   C     0.66687   0.95754   0.35782   0.00000  Uiso   1.00
C155   C     0.60086   0.95260   0.34848   0.00000  Uiso   1.00
C156   C     0.78356   0.92847   0.23808   0.00000  Uiso   1.00
C157   C     0.82413   0.87278   0.25324   0.00000  Uiso   1.00
C158   C     0.83005   0.82908   0.19608   0.00000  Uiso   1.00
C159   C     0.78617   0.05959   0.25626   0.00000  Uiso   1.00
C160   C     0.82895   0.11413   0.28670   0.00000  Uiso   1.00
C161   C     0.83708   0.18082   0.24483   0.00000  Uiso   1.00
H162   H     0.68235   0.01312   0.10962   0.00000  Uiso   1.00
H163   H     0.57280   0.99025   0.16166   0.00000  Uiso   1.00
H164   H     0.73004   0.90552   0.05710   0.00000  Uiso   1.00
H165   H     0.73486   0.14683   0.09055   0.00000  Uiso   1.00
H166   H     0.46611   0.95974   0.25013   0.00000  Uiso   1.00
H167   H     0.79768   0.78108   0.02965   0.00000  Uiso   1.00
H168   H     0.80784   0.28993   0.10018   0.00000  Uiso   1.00
H169   H     0.79609   0.97357   0.34675   0.00000  Uiso   1.00
H170   H     0.69279   0.94853   0.41181   0.00000  Uiso   1.00
H171   H     0.85003   0.86379   0.30725   0.00000  Uiso   1.00
H172   H     0.85485   0.10510   0.34070   0.00000  Uiso   1.00
H173   H     0.56349   0.92587   0.45316   0.00000  Uiso   1.00
H174   H     0.89507   0.74722   0.23268   0.00000  Uiso   1.00
H175   H     0.90523   0.25607   0.30322   0.00000  Uiso   1.00
O176   O     0.44479   0.92703   0.39016   0.00000  Uiso   1.00
O177   O     0.87981   0.69264   0.10090   0.00000  Uiso   1.00
O178   O     0.89313   0.36024   0.19344   0.00000  Uiso   1.00
N179   N     0.50321   0.95522   0.28898   0.00000  Uiso   1.00
N180   N     0.81320   0.78818   0.08286   0.00000  Uiso   1.00
N181   N     0.82271   0.26390   0.14879   0.00000  Uiso   1.00
N182   N     0.55561   0.93700   0.39824   0.00000  Uiso   1.00
N183   N     0.86560   0.76995   0.19211   0.00000  Uiso   1.00
N184   N     0.87511   0.24568   0.25804   0.00000  Uiso   1.00
C185   C     0.09971   0.97279   0.80254   0.00000  Uiso   1.00
C186   C     0.09863   0.05609   0.78687   0.00000  Uiso   1.00
C187   C     0.09946   0.09413   0.71792   0.00000  Uiso   1.00
C188   C     0.09821   0.17027   0.71519   0.00000  Uiso   1.00
C189   C     0.09681   0.29404   0.68114   0.00000  Uiso   1.00
C190   C     0.04108   0.94700   0.84229   0.00000  Uiso   1.00
C191   C     0.99352   0.89330   0.81992   0.00000  Uiso   1.00
C192   C     0.94383   0.87759   0.86385   0.00000  Uiso   1.00
C193   C     0.85309   0.83194   0.91585   0.00000  Uiso   1.00
C194   C     0.15690   0.96157   0.85916   0.00000  Uiso   1.00
C195   C     0.20672   0.92011   0.85099   0.00000  Uiso   1.00
C196   C     0.25454   0.91665   0.90913   0.00000  Uiso   1.00
C197   C     0.34363   0.89363   0.98733   0.00000  Uiso   1.00
C198   C     0.09604   0.04035   0.92031   0.00000  Uiso   1.00
C199   C     0.09664   0.09279   0.85085   0.00000  Uiso   1.00
C200   C     0.09540   0.16888   0.84823   0.00000  Uiso   1.00
C201   C     0.09622   0.20703   0.77928   0.00000  Uiso   1.00
C202   C     0.03908   0.98369   0.90626   0.00000  Uiso   1.00
C203   C     0.98946   0.96805   0.95023   0.00000  Uiso   1.00
C204   C     0.94183   0.91435   0.92794   0.00000  Uiso   1.00
C205   C     0.15491   0.99827   0.92313   0.00000  Uiso   1.00
C206   C     0.20266   0.99486   0.98130   0.00000  Uiso   1.00
C207   C     0.25254   0.95341   0.97322   0.00000  Uiso   1.00
H208   H     0.10126   0.94421   0.75273   0.00000  Uiso   1.00
H209   H     0.10099   0.06571   0.66842   0.00000  Uiso   1.00
H210   H     0.99508   0.86491   0.77042   0.00000  Uiso   1.00
H211   H     0.20824   0.89172   0.80148   0.00000  Uiso   1.00
H212   H     0.09979   0.21660   0.60316   0.00000  Uiso   1.00
H213   H     0.87647   0.79317   0.81823   0.00000  Uiso   1.00
H214   H     0.32598   0.84970   0.88373   0.00000  Uiso   1.00
H215   H     0.09449   0.06892   0.97012   0.00000  Uiso   1.00
H216   H     0.09385   0.19727   0.89774   0.00000  Uiso   1.00
H217   H     0.98793   0.99646   0.99973   0.00000  Uiso   1.00
H218   H     0.20110   0.02327   0.03079   0.00000  Uiso   1.00
H219   H     0.09399   0.32337   0.78928   0.00000  Uiso   1.00
H220   H     0.87067   0.89994   0.00435   0.00000  Uiso   1.00
H221   H     0.32018   0.95648   0.06985   0.00000  Uiso   1.00
O222   O     0.09658   0.35216   0.64468   0.00000  Uiso   1.00
O223   O     0.80359   0.79663   0.92685   0.00000  Uiso   1.00
O224   O     0.39333   0.87080   0.01278   0.00000  Uiso   1.00
N225   N     0.09853   0.22412   0.65690   0.00000  Uiso   1.00
N226   N     0.88973   0.82824   0.85797   0.00000  Uiso   1.00
N227   N     0.30997   0.88108   0.91922   0.00000  Uiso   1.00
N228   N     0.09541   0.28157   0.75705   0.00000  Uiso   1.00
N229   N     0.88661   0.88570   0.95812   0.00000  Uiso   1.00
N230   N     0.30685   0.93853   0.01937   0.00000  Uiso   1.00
C231   C     0.04086   0.45285   0.24594   0.00000  Uiso   1.00
C232   C     0.10691   0.42835   0.24199   0.00000  Uiso   1.00
C233   C     0.12118   0.35613   0.23893   0.00000  Uiso   1.00
C234   C     0.18453   0.34518   0.23555   0.00000  Uiso   1.00
C235   C     0.27989   0.29814   0.22943   0.00000  Uiso   1.00
C236   C     0.02961   0.50924   0.18052   0.00000  Uiso   1.00
C237   C     0.97888   0.50503   0.12578   0.00000  Uiso   1.00
C238   C     0.97715   0.56218   0.07065   0.00000  Uiso   1.00
C239   C     0.95247   0.64074   0.96913   0.00000  Uiso   1.00
C240   C     0.04576   0.49565   0.31491   0.00000  Uiso   1.00
C241   C     0.00859   0.48004   0.37316   0.00000  Uiso   1.00
C242   C     0.02044   0.52576   0.43117   0.00000  Uiso   1.00
C243   C     0.02083   0.58323   0.53830   0.00000  Uiso   1.00
C244   C     0.12798   0.56184   0.24537   0.00000  Uiso   1.00
C245   C     0.15423   0.48755   0.24168   0.00000  Uiso   1.00
C246   C     0.21757   0.47671   0.23830   0.00000  Uiso   1.00
C247   C     0.23193   0.40448   0.23524   0.00000  Uiso   1.00
C248   C     0.07693   0.56843   0.18021   0.00000  Uiso   1.00
C249   C     0.07527   0.62560   0.12515   0.00000  Uiso   1.00
C250   C     0.02455   0.62148   0.07034   0.00000  Uiso   1.00
C251   C     0.09308   0.55485   0.31460   0.00000  Uiso   1.00
C252   C     0.10498   0.60061   0.37253   0.00000  Uiso   1.00
C253   C     0.06784   0.58506   0.43086   0.00000  Uiso   1.00
H254   H     0.00402   0.40677   0.24617   0.00000  Uiso   1.00
H255   H     0.08455   0.31034   0.23916   0.00000  Uiso   1.00
H256   H     0.94227   0.45922   0.12604   0.00000  Uiso   1.00
H257   H     0.97198   0.43423   0.37337   0.00000  Uiso   1.00
H258   H     0.19470   0.22953   0.23123   0.00000  Uiso   1.00
H259   H     0.89467   0.54346   0.99271   0.00000  Uiso   1.00
H260   H     0.95732   0.49077   0.51427   0.00000  Uiso   1.00
H261   H     0.16482   0.60792   0.24513   0.00000  Uiso   1.00
H262   H     0.25418   0.52253   0.23807   0.00000  Uiso   1.00
H263   H     0.11189   0.67141   0.12494   0.00000  Uiso   1.00
H264   H     0.14160   0.64641   0.37227   0.00000  Uiso   1.00
H265   H     0.33237   0.40175   0.23033   0.00000  Uiso   1.00
H266   H     0.03234   0.71569   0.99181   0.00000  Uiso   1.00
H267   H     0.09500   0.66299   0.51337   0.00000  Uiso   1.00
O268   O     0.31941   0.25584   0.22613   0.00000  Uiso   1.00
O269   O     0.92578   0.66771   0.91321   0.00000  Uiso   1.00
O270   O     0.00798   0.59857   0.59748   0.00000  Uiso   1.00
N271   N     0.21484   0.28178   0.23200   0.00000  Uiso   1.00
N272   N     0.93434   0.57528   0.00899   0.00000  Uiso   1.00
N273   N     0.99290   0.52603   0.49660   0.00000  Uiso   1.00
N274   N     0.28892   0.37445   0.23152   0.00000  Uiso   1.00
N275   N     0.00842   0.66795   0.00851   0.00000  Uiso   1.00
N276   N     0.06698   0.61870   0.49612   0.00000  Uiso   1.00
C277   C     0.76954   0.30551   0.42295   0.00000  Uiso   1.00
C278   C     0.82083   0.25340   0.44817   0.00000  Uiso   1.00
C279   C     0.88591   0.27297   0.45525   0.00000  Uiso   1.00
C280   C     0.92497   0.21721   0.47915   0.00000  Uiso   1.00
C281   C     0.00843   0.14736   0.51588   0.00000  Uiso   1.00
C282   C     0.72573   0.29919   0.48439   0.00000  Uiso   1.00
C283   C     0.71086   0.35727   0.52191   0.00000  Uiso   1.00
C284   C     0.66985   0.34006   0.57629   0.00000  Uiso   1.00
C285   C     0.60564   0.34130   0.66921   0.00000  Uiso   1.00
C286   C     0.73028   0.27224   0.35674   0.00000  Uiso   1.00
C287   C     0.71922   0.30767   0.28694   0.00000  Uiso   1.00
C288   C     0.68204   0.26778   0.23386   0.00000  Uiso   1.00
C289   C     0.62490   0.22719   0.12860   0.00000  Uiso   1.00
C290   C     0.72316   0.17169   0.45279   0.00000  Uiso   1.00
C291   C     0.79563   0.18071   0.46438   0.00000  Uiso   1.00
C292   C     0.83460   0.12491   0.48827   0.00000  Uiso   1.00
C293   C     0.89974   0.14440   0.49539   0.00000  Uiso   1.00
C294   C     0.70054   0.22651   0.50060   0.00000  Uiso   1.00
C295   C     0.65954   0.20921   0.55493   0.00000  Uiso   1.00
C296   C     0.64462   0.26724   0.59253   0.00000  Uiso   1.00
C297   C     0.70509   0.19956   0.37295   0.00000  Uiso   1.00
C298   C     0.66792   0.15961   0.31997   0.00000  Uiso   1.00
C299   C     0.65680   0.19496   0.25010   0.00000  Uiso   1.00
H300   H     0.78915   0.36210   0.41033   0.00000  Uiso   1.00
H301   H     0.90539   0.32923   0.44271   0.00000  Uiso   1.00
H302   H     0.73035   0.41351   0.50935   0.00000  Uiso   1.00
H303   H     0.73872   0.36392   0.27442   0.00000  Uiso   1.00
H304   H     0.02315   0.26073   0.48578   0.00000  Uiso   1.00
H305   H     0.65406   0.43845   0.62628   0.00000  Uiso   1.00
H306   H     0.67171   0.33388   0.13089   0.00000  Uiso   1.00
H307   H     0.70355   0.11510   0.46542   0.00000  Uiso   1.00
H308   H     0.81509   0.06867   0.50082   0.00000  Uiso   1.00
H309   H     0.64006   0.15295   0.56746   0.00000  Uiso   1.00
H310   H     0.64843   0.10336   0.33253   0.00000  Uiso   1.00
H311   H     0.94986   0.04925   0.53295   0.00000  Uiso   1.00
H312   H     0.58077   0.22697   0.67345   0.00000  Uiso   1.00
H313   H     0.59843   0.12240   0.17805   0.00000  Uiso   1.00
O314   O     0.06143   0.12891   0.53168   0.00000  Uiso   1.00
O315   O     0.57719   0.36207   0.71600   0.00000  Uiso   1.00
O316   O     0.60035   0.22488   0.06606   0.00000  Uiso   1.00
N317   N     0.99060   0.21733   0.49201   0.00000  Uiso   1.00
N318   N     0.64553   0.38348   0.62338   0.00000  Uiso   1.00
N319   N     0.66201   0.28572   0.16023   0.00000  Uiso   1.00
N320   N     0.95116   0.10353   0.51739   0.00000  Uiso   1.00
N321   N     0.60609   0.26969   0.64875   0.00000  Uiso   1.00
N322   N     0.62258   0.17193   0.18561   0.00000  Uiso   1.00
C323   C     0.34601   0.64093   0.48705   0.00000  Uiso   1.00
C324   C     0.34883   0.68472   0.41247   0.00000  Uiso   1.00
C325   C     0.33605   0.75786   0.39717   0.00000  Uiso   1.00
C326   C     0.34128   0.78792   0.32550   0.00000  Uiso   1.00
C327   C     0.34305   0.86225   0.21798   0.00000  Uiso   1.00
C328   C     0.41136   0.61265   0.50691   0.00000  Uiso   1.00
C329   C     0.45115   0.62520   0.57102   0.00000  Uiso   1.00
C330   C     0.50901   0.59458   0.57886   0.00000  Uiso   1.00
C331   C     0.60785   0.55699   0.61798   0.00000  Uiso   1.00
C332   C     0.29978   0.57287   0.47319   0.00000  Uiso   1.00
C333   C     0.24575   0.55196   0.50896   0.00000  Uiso   1.00
C334   C     0.20969   0.48783   0.48840   0.00000  Uiso   1.00
C335   C     0.13528   0.38847   0.47516   0.00000  Uiso   1.00
C336   C     0.37804   0.56424   0.38697   0.00000  Uiso   1.00
C337   C     0.36624   0.64306   0.35811   0.00000  Uiso   1.00
C338   C     0.37149   0.67301   0.28645   0.00000  Uiso   1.00
C339   C     0.35871   0.74619   0.27105   0.00000  Uiso   1.00
C340   C     0.42877   0.57100   0.45256   0.00000  Uiso   1.00
C341   C     0.48659   0.54034   0.46030   0.00000  Uiso   1.00
C342   C     0.52645   0.55285   0.52440   0.00000  Uiso   1.00
C343   C     0.31718   0.53121   0.41883   0.00000  Uiso   1.00
C344   C     0.28120   0.46710   0.39822   0.00000  Uiso   1.00
C345   C     0.22712   0.44610   0.43395   0.00000  Uiso   1.00
H346   H     0.33246   0.67337   0.52937   0.00000  Uiso   1.00
H347   H     0.32259   0.79009   0.43926   0.00000  Uiso   1.00
H348   H     0.43766   0.65743   0.61308   0.00000  Uiso   1.00
H349   H     0.23231   0.58421   0.55102   0.00000  Uiso   1.00
H350   H     0.31933   0.90113   0.31539   0.00000  Uiso   1.00
H351   H     0.56197   0.62141   0.68191   0.00000  Uiso   1.00
H352   H     0.12893   0.46699   0.55104   0.00000  Uiso   1.00
H353   H     0.39159   0.53180   0.34465   0.00000  Uiso   1.00
H354   H     0.38495   0.64076   0.24439   0.00000  Uiso   1.00
H355   H     0.50003   0.50811   0.41822   0.00000  Uiso   1.00
H356   H     0.29468   0.43488   0.35615   0.00000  Uiso   1.00
H357   H     0.36996   0.77993   0.15723   0.00000  Uiso   1.00
H358   H     0.61259   0.50020   0.52376   0.00000  Uiso   1.00
H359   H     0.17955   0.34579   0.39288   0.00000  Uiso   1.00
O360   O     0.33923   0.91477   0.17369   0.00000  Uiso   1.00
O361   O     0.65756   0.54777   0.65457   0.00000  Uiso   1.00
O362   O     0.08942   0.34518   0.48287   0.00000  Uiso   1.00
N363   N     0.33214   0.85765   0.29192   0.00000  Uiso   1.00
N364   N     0.55900   0.59613   0.63459   0.00000  Uiso   1.00
N365   N     0.15415   0.45176   0.51225   0.00000  Uiso   1.00
N366   N     0.35938   0.79243   0.20681   0.00000  Uiso   1.00
N367   N     0.58624   0.53092   0.54949   0.00000  Uiso   1.00
N368   N     0.18139   0.38654   0.42715   0.00000  Uiso   1.00
C369   C     0.40896   0.15589   0.94223   0.00000  Uiso   1.00
C370   C     0.34630   0.16354   0.97318   0.00000  Uiso   1.00
C371   C     0.33495   0.15067   0.04674   0.00000  Uiso   1.00
C372   C     0.27445   0.16074   0.06388   0.00000  Uiso   1.00
C373   C     0.18438   0.16927   0.12023   0.00000  Uiso   1.00
C374   C     0.42738   0.23049   0.90248   0.00000  Uiso   1.00
C375   C     0.48420   0.27391   0.91659   0.00000  Uiso   1.00
C376   C     0.49196   0.34034   0.87421   0.00000  Uiso   1.00
C377   C     0.52778   0.45280   0.82076   0.00000  Uiso   1.00
C378   C     0.39341   0.10159   0.88227   0.00000  Uiso   1.00
C379   C     0.42168   0.03663   0.87937   0.00000  Uiso   1.00
C380   C     0.40085   0.99453   0.81996   0.00000  Uiso   1.00
C381   C     0.38393   0.90685   0.73514   0.00000  Uiso   1.00
C382   C     0.32171   0.19665   0.84188   0.00000  Uiso   1.00
C383   C     0.29891   0.18567   0.91867   0.00000  Uiso   1.00
C384   C     0.23842   0.19576   0.93571   0.00000  Uiso   1.00
C385   C     0.22698   0.18291   0.00928   0.00000  Uiso   1.00
C386   C     0.37999   0.25263   0.84798   0.00000  Uiso   1.00
C387   C     0.38767   0.31900   0.80556   0.00000  Uiso   1.00
C388   C     0.44448   0.36251   0.81960   0.00000  Uiso   1.00
C389   C     0.34602   0.12372   0.82777   0.00000  Uiso   1.00
C390   C     0.32515   0.08172   0.76835   0.00000  Uiso   1.00
C391   C     0.35338   0.01671   0.76536   0.00000  Uiso   1.00
H392   H     0.44585   0.13866   0.98467   0.00000  Uiso   1.00
H393   H     0.37163   0.13355   0.08890   0.00000  Uiso   1.00
H394   H     0.52086   0.25676   0.95877   0.00000  Uiso   1.00
H395   H     0.45835   0.01952   0.92156   0.00000  Uiso   1.00
H396   H     0.26845   0.13766   0.18043   0.00000  Uiso   1.00
H397   H     0.58312   0.39746   0.90602   0.00000  Uiso   1.00
H398   H     0.45130   0.89718   0.82756   0.00000  Uiso   1.00
H399   H     0.28482   0.21388   0.79945   0.00000  Uiso   1.00
H400   H     0.20176   0.21289   0.89352   0.00000  Uiso   1.00
H401   H     0.35099   0.33611   0.76339   0.00000  Uiso   1.00
H402   H     0.28848   0.09886   0.72618   0.00000  Uiso   1.00
H403   H     0.13058   0.20206   0.02185   0.00000  Uiso   1.00
H404   H     0.44525   0.46186   0.74744   0.00000  Uiso   1.00
H405   H     0.31343   0.96159   0.66898   0.00000  Uiso   1.00
O406   O     0.14779   0.16788   0.16637   0.00000  Uiso   1.00
O407   O     0.56063   0.50872   0.80634   0.00000  Uiso   1.00
O408   O     0.38768   0.85236   0.70341   0.00000  Uiso   1.00
N409   N     0.24740   0.15294   0.13020   0.00000  Uiso   1.00
N410   N     0.54159   0.39584   0.87365   0.00000  Uiso   1.00
N411   N     0.41836   0.92814   0.80028   0.00000  Uiso   1.00
N412   N     0.17321   0.18759   0.04487   0.00000  Uiso   1.00
N413   N     0.46740   0.43050   0.78832   0.00000  Uiso   1.00
N414   N     0.34418   0.96279   0.71495   0.00000  Uiso   1.00
C415   C     0.26016   0.64679   0.04691   0.00000  Uiso   1.00
C416   C     0.30345   0.67205   0.98660   0.00000  Uiso   1.00
C417   C     0.36943   0.67704   0.99523   0.00000  Uiso   1.00
C418   C     0.40032   0.70135   0.93333   0.00000  Uiso   1.00
C419   C     0.47269   0.73777   0.85004   0.00000  Uiso   1.00
C420   C     0.21840   0.70947   0.05059   0.00000  Uiso   1.00
C421   C     0.21288   0.74590   0.11302   0.00000  Uiso   1.00
C422   C     0.17217   0.80172   0.10499   0.00000  Uiso   1.00
C423   C     0.11248   0.89618   0.12105   0.00000  Uiso   1.00
C424   C     0.21583   0.58240   0.01771   0.00000  Uiso   1.00
C425   C     0.20812   0.51199   0.05251   0.00000  Uiso   1.00
C426   C     0.16524   0.46083   0.01681   0.00000  Uiso   1.00
C427   C     0.10155   0.35800   0.98183   0.00000  Uiso   1.00
C428   C     0.19769   0.68111   0.92166   0.00000  Uiso   1.00
C429   C     0.26951   0.69069   0.91857   0.00000  Uiso   1.00
C430   C     0.30031   0.71500   0.85664   0.00000  Uiso   1.00
C431   C     0.36633   0.72003   0.86517   0.00000  Uiso   1.00
C432   C     0.18447   0.72811   0.98256   0.00000  Uiso   1.00
C433   C     0.14376   0.78387   0.97443   0.00000  Uiso   1.00
C434   C     0.13818   0.82039   0.03683   0.00000  Uiso   1.00
C435   C     0.18190   0.60103   0.94968   0.00000  Uiso   1.00
C436   C     0.13901   0.54997   0.91392   0.00000  Uiso   1.00
C437   C     0.13124   0.47950   0.94865   0.00000  Uiso   1.00
H438   H     0.28658   0.63229   0.09988   0.00000  Uiso   1.00
H439   H     0.39567   0.66261   0.04789   0.00000  Uiso   1.00
H440   H     0.23914   0.73146   0.16566   0.00000  Uiso   1.00
H441   H     0.23439   0.49759   0.10516   0.00000  Uiso   1.00
H442   H     0.50166   0.70448   0.96025   0.00000  Uiso   1.00
H443   H     0.17159   0.84964   0.20858   0.00000  Uiso   1.00
H444   H     0.16157   0.35647   0.08100   0.00000  Uiso   1.00
H445   H     0.17127   0.69563   0.86868   0.00000  Uiso   1.00
H446   H     0.27404   0.72943   0.80400   0.00000  Uiso   1.00
H447   H     0.11751   0.79828   0.92177   0.00000  Uiso   1.00
H448   H     0.11276   0.56441   0.86127   0.00000  Uiso   1.00
H449   H     0.40293   0.75871   0.76230   0.00000  Uiso   1.00
H450   H     0.07286   0.90387   0.01064   0.00000  Uiso   1.00
H451   H     0.06285   0.41071   0.88305   0.00000  Uiso   1.00
O452   O     0.52198   0.75271   0.82290   0.00000  Uiso   1.00
O453   O     0.08893   0.94315   0.14871   0.00000  Uiso   1.00
O454   O     0.07579   0.29613   0.98132   0.00000  Uiso   1.00
N455   N     0.46432   0.71259   0.92253   0.00000  Uiso   1.00
N456   N     0.15573   0.84832   0.15471   0.00000  Uiso   1.00
N457   N     0.14635   0.38725   0.03544   0.00000  Uiso   1.00
N458   N     0.41120   0.74177   0.81602   0.00000  Uiso   1.00
N459   N     0.10261   0.87750   0.04819   0.00000  Uiso   1.00
N460   N     0.09323   0.41643   0.92892   0.00000  Uiso   1.00
C461   C     0.84730   0.73858   0.44133   0.00000  Uiso   1.00
C462   C     0.84458   0.66290   0.48371   0.00000  Uiso   1.00
C463   C     0.83901   0.64940   0.55872   0.00000  Uiso   1.00
C464   C     0.83736   0.57630   0.58702   0.00000  Uiso   1.00
C465   C     0.83260   0.46754   0.65970   0.00000  Uiso   1.00
C466   C     0.90877   0.74626   0.40425   0.00000  Uiso   1.00
C467   C     0.95716   0.80286   0.41246   0.00000  Uiso   1.00
C468   C     0.00953   0.79993   0.37386   0.00000  Uiso   1.00
C469   C     0.10440   0.82062   0.32314   0.00000  Uiso   1.00
C470   C     0.79332   0.73404   0.37906   0.00000  Uiso   1.00
C471   C     0.74465   0.78038   0.36606   0.00000  Uiso   1.00
C472   C     0.69983   0.76717   0.30624   0.00000  Uiso   1.00
C473   C     0.61545   0.76889   0.21639   0.00000  Uiso   1.00
C474   C     0.85427   0.63274   0.35819   0.00000  Uiso   1.00
C475   C     0.84837   0.60541   0.43855   0.00000  Uiso   1.00
C476   C     0.84672   0.53230   0.46674   0.00000  Uiso   1.00
C477   C     0.84114   0.51870   0.54178   0.00000  Uiso   1.00
C478   C     0.91256   0.68877   0.35909   0.00000  Uiso   1.00
C479   C     0.96486   0.68576   0.32047   0.00000  Uiso   1.00
C480   C     0.01332   0.74234   0.32861   0.00000  Uiso   1.00
C481   C     0.79711   0.67655   0.33390   0.00000  Uiso   1.00
C482   C     0.75236   0.66327   0.27407   0.00000  Uiso   1.00
C483   C     0.70362   0.70958   0.26099   0.00000  Uiso   1.00
H484   H     0.84436   0.78334   0.47649   0.00000  Uiso   1.00
H485   H     0.83609   0.69391   0.59366   0.00000  Uiso   1.00
H486   H     0.95421   0.84734   0.44740   0.00000  Uiso   1.00
H487   H     0.74174   0.82486   0.40102   0.00000  Uiso   1.00
H488   H     0.82862   0.56942   0.70365   0.00000  Uiso   1.00
H489   H     0.07768   0.89295   0.39525   0.00000  Uiso   1.00
H490   H     0.62963   0.84555   0.29743   0.00000  Uiso   1.00
H491   H     0.85721   0.58798   0.32303   0.00000  Uiso   1.00
H492   H     0.84965   0.48783   0.43177   0.00000  Uiso   1.00
H493   H     0.96777   0.64126   0.28552   0.00000  Uiso   1.00
H494   H     0.75530   0.61878   0.23914   0.00000  Uiso   1.00
H495   H     0.83963   0.40215   0.57226   0.00000  Uiso   1.00
H496   H     0.08868   0.72569   0.26385   0.00000  Uiso   1.00
H497   H     0.64064   0.67828   0.16604   0.00000  Uiso   1.00
O498   O     0.82894   0.42343   0.71226   0.00000  Uiso   1.00
O499   O     0.15569   0.84791   0.30764   0.00000  Uiso   1.00
O500   O     0.56786   0.78571   0.17932   0.00000  Uiso   1.00
N501   N     0.83223   0.54379   0.65780   0.00000  Uiso   1.00
N502   N     0.06509   0.84627   0.36947   0.00000  Uiso   1.00
N503   N     0.64622   0.80197   0.27801   0.00000  Uiso   1.00
N504   N     0.83816   0.45379   0.58710   0.00000  Uiso   1.00
N505   N     0.07102   0.75627   0.29877   0.00000  Uiso   1.00
N506   N     0.65214   0.71196   0.20731   0.00000  Uiso   1.00
C507   C     0.91422   0.18776   0.93742   0.00000  Uiso   1.00
C508   C     0.85142   0.22024   0.94188   0.00000  Uiso   1.00
C509   C     0.84213   0.29483   0.93470   0.00000  Uiso   1.00
C510   C     0.78111   0.31331   0.94051   0.00000  Uiso   1.00
C511   C     0.69120   0.37199   0.94556   0.00000  Uiso   1.00
C512   C     0.92691   0.14062   0.00949   0.00000  Uiso   1.00
C513   C     0.98108   0.14826   0.05915   0.00000  Uiso   1.00
C514   C     0.98361   0.09971   0.12188   0.00000  Uiso   1.00
C515   C     0.01091   0.03475   0.23187   0.00000  Uiso   1.00
C516   C     0.90139   0.13401   0.87673   0.00000  Uiso   1.00
C517   C     0.93413   0.13608   0.81477   0.00000  Uiso   1.00
C518   C     0.91518   0.08195   0.76572   0.00000  Uiso   1.00
C519   C     0.90287   0.00672   0.66958   0.00000  Uiso   1.00
C520   C     0.82239   0.08793   0.96051   0.00000  Uiso   1.00
C521   C     0.80155   0.16602   0.95442   0.00000  Uiso   1.00
C522   C     0.74052   0.18439   0.96024   0.00000  Uiso   1.00
C523   C     0.73114   0.25900   0.95307   0.00000  Uiso   1.00
C524   C     0.87703   0.08640   0.02203   0.00000  Uiso   1.00
C525   C     0.87948   0.03782   0.08469   0.00000  Uiso   1.00
C526   C     0.93364   0.04540   0.13444   0.00000  Uiso   1.00
C527   C     0.85151   0.07979   0.88926   0.00000  Uiso   1.00
C528   C     0.83252   0.02564   0.84031   0.00000  Uiso   1.00
C529   C     0.86521   0.02763   0.77829   0.00000  Uiso   1.00
H530   H     0.95306   0.22997   0.92767   0.00000  Uiso   1.00
H531   H     0.88075   0.33677   0.92501   0.00000  Uiso   1.00
H532   H     0.01968   0.19022   0.04943   0.00000  Uiso   1.00
H533   H     0.97272   0.17804   0.80509   0.00000  Uiso   1.00
H534   H     0.77858   0.43128   0.92761   0.00000  Uiso   1.00
H535   H     0.07154   0.12226   0.18996   0.00000  Uiso   1.00
H536   H     0.97253   0.09657   0.67471   0.00000  Uiso   1.00
H537   H     0.78355   0.04572   0.97027   0.00000  Uiso   1.00
H538   H     0.70193   0.14242   0.96994   0.00000  Uiso   1.00
H539   H     0.84087   0.99587   0.09438   0.00000  Uiso   1.00
H540   H     0.79391   0.98369   0.85003   0.00000  Uiso   1.00
H541   H     0.63345   0.27353   0.96409   0.00000  Uiso   1.00
H542   H     0.92642   0.96451   0.22644   0.00000  Uiso   1.00
H543   H     0.82740   0.93882   0.71119   0.00000  Uiso   1.00
O544   O     0.65539   0.41934   0.94489   0.00000  Uiso   1.00
O545   O     0.03975   0.01391   0.28908   0.00000  Uiso   1.00
O546   O     0.90985   0.98021   0.61308   0.00000  Uiso   1.00
N547   N     0.75562   0.38088   0.93623   0.00000  Uiso   1.00
N548   N     0.02952   0.09197   0.18152   0.00000  Uiso   1.00
N549   N     0.93696   0.06795   0.69981   0.00000  Uiso   1.00
N550   N     0.67753   0.29600   0.95585   0.00000  Uiso   1.00
N551   N     0.95143   0.00709   0.20114   0.00000  Uiso   1.00
N552   N     0.85887   0.98306   0.71943   0.00000  Uiso   1.00
