data_job_05303
_audit_creation_date              2018-12-19
_audit_creation_method            'Materials Studio'
_symmetry_space_group_name_H-M    'P1'
_symmetry_Int_Tables_number       1
_symmetry_cell_setting            triclinic
loop_
_symmetry_equiv_pos_as_xyz
  x,y,z
_cell_length_a                    29.9181
_cell_length_b                    15.4154
_cell_length_c                    9.6209
_cell_angle_alpha                 90.0000
_cell_angle_beta                  90.0000
_cell_angle_gamma                 90.0000
loop_
_atom_site_label
_atom_site_type_symbol
_atom_site_fract_x
_atom_site_fract_y
_atom_site_fract_z
_atom_site_U_iso_or_equiv
_atom_site_adp_type
_atom_site_occupancy
C1     C     0.09884   0.66455   0.20752   0.00000  Uiso   1.00
C2     C     0.09673   0.75998   0.16627   0.00000  Uiso   1.00
C3     C     0.06525   0.79711   0.07865   0.00000  Uiso   1.00
C4     C     0.06905   0.88552   0.05382   0.00000  Uiso   1.00
C5     C     0.06061   0.02617   0.98048   0.00000  Uiso   1.00
C6     C     0.14540   0.63326   0.16693   0.00000  Uiso   1.00
C7     C     0.15482   0.56384   0.07987   0.00000  Uiso   1.00
C8     C     0.19959   0.54558   0.05562   0.00000  Uiso   1.00
C9     C     0.26670   0.48946   0.98338   0.00000  Uiso   1.00
C10    C     0.09739   0.66277   0.36593   0.00000  Uiso   1.00
C11    C     0.06646   0.61814   0.44620   0.00000  Uiso   1.00
C12    C     0.07082   0.62470   0.58949   0.00000  Uiso   1.00
C13    C     0.06339   0.61439   0.82623   0.00000  Uiso   1.00
C14    C     0.16159   0.75554   0.31926   0.00000  Uiso   1.00
C15    C     0.13082   0.80940   0.22696   0.00000  Uiso   1.00
C16    C     0.13467   0.89778   0.20227   0.00000  Uiso   1.00
C17    C     0.10319   0.93504   0.11463   0.00000  Uiso   1.00
C18    C     0.17948   0.68268   0.22762   0.00000  Uiso   1.00
C19    C     0.22425   0.66451   0.20350   0.00000  Uiso   1.00
C20    C     0.23374   0.59509   0.11642   0.00000  Uiso   1.00
C21    C     0.13148   0.71219   0.42662   0.00000  Uiso   1.00
C22    C     0.13589   0.71881   0.56982   0.00000  Uiso   1.00
C23    C     0.10497   0.67421   0.65029   0.00000  Uiso   1.00
H24    H     0.07231   0.62607   0.16027   0.00000  Uiso   1.00
H25    H     0.03888   0.75884   0.03169   0.00000  Uiso   1.00
H26    H     0.12844   0.52560   0.03293   0.00000  Uiso   1.00
H27    H     0.04009   0.57990   0.39919   0.00000  Uiso   1.00
H28    H     0.01685   0.92783   0.91586   0.00000  Uiso   1.00
H29    H     0.20570   0.43602   0.91851   0.00000  Uiso   1.00
H30    H     0.01940   0.55050   0.69085   0.00000  Uiso   1.00
H31    H     0.18813   0.79402   0.36652   0.00000  Uiso   1.00
H32    H     0.16105   0.93601   0.24925   0.00000  Uiso   1.00
H33    H     0.25061   0.70277   0.25049   0.00000  Uiso   1.00
H34    H     0.16227   0.75706   0.61675   0.00000  Uiso   1.00
H35    H     0.11602   0.07162   0.09243   0.00000  Uiso   1.00
H36    H     0.30486   0.57981   0.09509   0.00000  Uiso   1.00
H37    H     0.11856   0.69430   0.86743   0.00000  Uiso   1.00
O38    O     0.04654   0.09009   0.92325   0.00000  Uiso   1.00
O39    O     0.29430   0.44485   0.92676   0.00000  Uiso   1.00
O40    O     0.04988   0.59506   0.94004   0.00000  Uiso   1.00
N41    N     0.04390   0.94219   0.97353   0.00000  Uiso   1.00
N42    N     0.22046   0.48239   0.97599   0.00000  Uiso   1.00
N43    N     0.04630   0.58940   0.69807   0.00000  Uiso   1.00
N44    N     0.09726   0.01956   0.06855   0.00000  Uiso   1.00
N45    N     0.27382   0.55976   0.07101   0.00000  Uiso   1.00
N46    N     0.09965   0.66678   0.79308   0.00000  Uiso   1.00
C47    C     0.59884   0.16455   0.70752   0.00000  Uiso   1.00
C48    C     0.59673   0.25998   0.66627   0.00000  Uiso   1.00
C49    C     0.56525   0.29711   0.57865   0.00000  Uiso   1.00
C50    C     0.56905   0.38552   0.55382   0.00000  Uiso   1.00
C51    C     0.56061   0.52617   0.48048   0.00000  Uiso   1.00
C52    C     0.64540   0.13326   0.66693   0.00000  Uiso   1.00
C53    C     0.65482   0.06384   0.57987   0.00000  Uiso   1.00
C54    C     0.69959   0.04558   0.55562   0.00000  Uiso   1.00
C55    C     0.76670   0.98946   0.48338   0.00000  Uiso   1.00
C56    C     0.59739   0.16277   0.86593   0.00000  Uiso   1.00
C57    C     0.56646   0.11814   0.94620   0.00000  Uiso   1.00
C58    C     0.57082   0.12470   0.08949   0.00000  Uiso   1.00
C59    C     0.56339   0.11439   0.32623   0.00000  Uiso   1.00
C60    C     0.66159   0.25554   0.81926   0.00000  Uiso   1.00
C61    C     0.63082   0.30940   0.72696   0.00000  Uiso   1.00
C62    C     0.63467   0.39778   0.70227   0.00000  Uiso   1.00
C63    C     0.60319   0.43504   0.61463   0.00000  Uiso   1.00
C64    C     0.67948   0.18268   0.72762   0.00000  Uiso   1.00
C65    C     0.72425   0.16451   0.70350   0.00000  Uiso   1.00
C66    C     0.73374   0.09509   0.61642   0.00000  Uiso   1.00
C67    C     0.63148   0.21219   0.92662   0.00000  Uiso   1.00
C68    C     0.63589   0.21881   0.06982   0.00000  Uiso   1.00
C69    C     0.60497   0.17421   0.15029   0.00000  Uiso   1.00
H70    H     0.57231   0.12607   0.66027   0.00000  Uiso   1.00
H71    H     0.53888   0.25884   0.53169   0.00000  Uiso   1.00
H72    H     0.62844   0.02560   0.53293   0.00000  Uiso   1.00
H73    H     0.54009   0.07990   0.89919   0.00000  Uiso   1.00
H74    H     0.51685   0.42783   0.41586   0.00000  Uiso   1.00
H75    H     0.70570   0.93602   0.41851   0.00000  Uiso   1.00
H76    H     0.51940   0.05050   0.19085   0.00000  Uiso   1.00
H77    H     0.68813   0.29402   0.86652   0.00000  Uiso   1.00
H78    H     0.66105   0.43601   0.74925   0.00000  Uiso   1.00
H79    H     0.75061   0.20277   0.75049   0.00000  Uiso   1.00
H80    H     0.66227   0.25706   0.11675   0.00000  Uiso   1.00
H81    H     0.61602   0.57162   0.59243   0.00000  Uiso   1.00
H82    H     0.80486   0.07981   0.59509   0.00000  Uiso   1.00
H83    H     0.61856   0.19430   0.36743   0.00000  Uiso   1.00
O84    O     0.54654   0.59009   0.42325   0.00000  Uiso   1.00
O85    O     0.79430   0.94485   0.42676   0.00000  Uiso   1.00
O86    O     0.54988   0.09506   0.44004   0.00000  Uiso   1.00
N87    N     0.54390   0.44219   0.47353   0.00000  Uiso   1.00
N88    N     0.72046   0.98239   0.47599   0.00000  Uiso   1.00
N89    N     0.54630   0.08940   0.19807   0.00000  Uiso   1.00
N90    N     0.59726   0.51956   0.56855   0.00000  Uiso   1.00
N91    N     0.77382   0.05976   0.57101   0.00000  Uiso   1.00
N92    N     0.59965   0.16678   0.29308   0.00000  Uiso   1.00
C93    C     0.90116   0.33545   0.20752   0.00000  Uiso   1.00
C94    C     0.90327   0.24002   0.16627   0.00000  Uiso   1.00
C95    C     0.93475   0.20289   0.07865   0.00000  Uiso   1.00
C96    C     0.93095   0.11448   0.05382   0.00000  Uiso   1.00
C97    C     0.93939   0.97383   0.98048   0.00000  Uiso   1.00
C98    C     0.85460   0.36674   0.16693   0.00000  Uiso   1.00
C99    C     0.84518   0.43616   0.07987   0.00000  Uiso   1.00
C100   C     0.80041   0.45442   0.05562   0.00000  Uiso   1.00
C101   C     0.73330   0.51054   0.98338   0.00000  Uiso   1.00
C102   C     0.90261   0.33723   0.36593   0.00000  Uiso   1.00
C103   C     0.93354   0.38186   0.44620   0.00000  Uiso   1.00
C104   C     0.92918   0.37530   0.58949   0.00000  Uiso   1.00
C105   C     0.93661   0.38561   0.82623   0.00000  Uiso   1.00
C106   C     0.83841   0.24446   0.31926   0.00000  Uiso   1.00
C107   C     0.86918   0.19060   0.22696   0.00000  Uiso   1.00
C108   C     0.86533   0.10222   0.20227   0.00000  Uiso   1.00
C109   C     0.89681   0.06496   0.11463   0.00000  Uiso   1.00
C110   C     0.82052   0.31732   0.22762   0.00000  Uiso   1.00
C111   C     0.77575   0.33549   0.20350   0.00000  Uiso   1.00
C112   C     0.76626   0.40491   0.11642   0.00000  Uiso   1.00
C113   C     0.86852   0.28781   0.42662   0.00000  Uiso   1.00
C114   C     0.86411   0.28119   0.56982   0.00000  Uiso   1.00
C115   C     0.89503   0.32579   0.65029   0.00000  Uiso   1.00
H116   H     0.92769   0.37393   0.16027   0.00000  Uiso   1.00
H117   H     0.96112   0.24116   0.03169   0.00000  Uiso   1.00
H118   H     0.87156   0.47440   0.03293   0.00000  Uiso   1.00
H119   H     0.95991   0.42010   0.39919   0.00000  Uiso   1.00
H120   H     0.98315   0.07217   0.91586   0.00000  Uiso   1.00
H121   H     0.79430   0.56398   0.91851   0.00000  Uiso   1.00
H122   H     0.98060   0.44950   0.69085   0.00000  Uiso   1.00
H123   H     0.81187   0.20598   0.36652   0.00000  Uiso   1.00
H124   H     0.83895   0.06399   0.24925   0.00000  Uiso   1.00
H125   H     0.74939   0.29723   0.25049   0.00000  Uiso   1.00
H126   H     0.83773   0.24294   0.61675   0.00000  Uiso   1.00
H127   H     0.88398   0.92838   0.09243   0.00000  Uiso   1.00
H128   H     0.69514   0.42019   0.09509   0.00000  Uiso   1.00
H129   H     0.88144   0.30570   0.86743   0.00000  Uiso   1.00
O130   O     0.95346   0.90991   0.92325   0.00000  Uiso   1.00
O131   O     0.70570   0.55515   0.92676   0.00000  Uiso   1.00
O132   O     0.95012   0.40494   0.94004   0.00000  Uiso   1.00
N133   N     0.95610   0.05781   0.97353   0.00000  Uiso   1.00
N134   N     0.77954   0.51761   0.97599   0.00000  Uiso   1.00
N135   N     0.95370   0.41060   0.69807   0.00000  Uiso   1.00
N136   N     0.90274   0.98044   0.06855   0.00000  Uiso   1.00
N137   N     0.72618   0.44024   0.07101   0.00000  Uiso   1.00
N138   N     0.90035   0.33322   0.79308   0.00000  Uiso   1.00
C139   C     0.40116   0.83545   0.70752   0.00000  Uiso   1.00
C140   C     0.40327   0.74002   0.66627   0.00000  Uiso   1.00
C141   C     0.43475   0.70289   0.57865   0.00000  Uiso   1.00
C142   C     0.43095   0.61448   0.55382   0.00000  Uiso   1.00
C143   C     0.43939   0.47383   0.48048   0.00000  Uiso   1.00
C144   C     0.35460   0.86674   0.66693   0.00000  Uiso   1.00
C145   C     0.34518   0.93616   0.57987   0.00000  Uiso   1.00
C146   C     0.30041   0.95442   0.55562   0.00000  Uiso   1.00
C147   C     0.23330   0.01054   0.48338   0.00000  Uiso   1.00
C148   C     0.40261   0.83723   0.86593   0.00000  Uiso   1.00
C149   C     0.43354   0.88186   0.94620   0.00000  Uiso   1.00
C150   C     0.42918   0.87530   0.08949   0.00000  Uiso   1.00
C151   C     0.43661   0.88561   0.32623   0.00000  Uiso   1.00
C152   C     0.33841   0.74446   0.81926   0.00000  Uiso   1.00
C153   C     0.36918   0.69060   0.72696   0.00000  Uiso   1.00
C154   C     0.36533   0.60222   0.70227   0.00000  Uiso   1.00
C155   C     0.39681   0.56496   0.61463   0.00000  Uiso   1.00
C156   C     0.32052   0.81732   0.72762   0.00000  Uiso   1.00
C157   C     0.27575   0.83549   0.70350   0.00000  Uiso   1.00
C158   C     0.26626   0.90491   0.61642   0.00000  Uiso   1.00
C159   C     0.36852   0.78781   0.92662   0.00000  Uiso   1.00
C160   C     0.36411   0.78119   0.06982   0.00000  Uiso   1.00
C161   C     0.39503   0.82579   0.15029   0.00000  Uiso   1.00
H162   H     0.42769   0.87393   0.66027   0.00000  Uiso   1.00
H163   H     0.46112   0.74116   0.53169   0.00000  Uiso   1.00
H164   H     0.37156   0.97440   0.53293   0.00000  Uiso   1.00
H165   H     0.45991   0.92010   0.89919   0.00000  Uiso   1.00
H166   H     0.48315   0.57217   0.41586   0.00000  Uiso   1.00
H167   H     0.29430   0.06398   0.41851   0.00000  Uiso   1.00
H168   H     0.48060   0.94950   0.19085   0.00000  Uiso   1.00
H169   H     0.31187   0.70598   0.86652   0.00000  Uiso   1.00
H170   H     0.33895   0.56399   0.74925   0.00000  Uiso   1.00
H171   H     0.24939   0.79723   0.75049   0.00000  Uiso   1.00
H172   H     0.33773   0.74294   0.11675   0.00000  Uiso   1.00
H173   H     0.38398   0.42838   0.59243   0.00000  Uiso   1.00
H174   H     0.19514   0.92019   0.59509   0.00000  Uiso   1.00
H175   H     0.38144   0.80570   0.36743   0.00000  Uiso   1.00
O176   O     0.45346   0.40991   0.42325   0.00000  Uiso   1.00
O177   O     0.20570   0.05515   0.42676   0.00000  Uiso   1.00
O178   O     0.45012   0.90494   0.44004   0.00000  Uiso   1.00
N179   N     0.45610   0.55781   0.47353   0.00000  Uiso   1.00
N180   N     0.27954   0.01761   0.47599   0.00000  Uiso   1.00
N181   N     0.45370   0.91060   0.19807   0.00000  Uiso   1.00
N182   N     0.40274   0.48044   0.56855   0.00000  Uiso   1.00
N183   N     0.22618   0.94024   0.57101   0.00000  Uiso   1.00
N184   N     0.40035   0.83322   0.29308   0.00000  Uiso   1.00
C185   C     0.59884   0.83545   0.20752   0.00000  Uiso   1.00
C186   C     0.59673   0.74002   0.16627   0.00000  Uiso   1.00
C187   C     0.56525   0.70289   0.07865   0.00000  Uiso   1.00
C188   C     0.56905   0.61448   0.05382   0.00000  Uiso   1.00
C189   C     0.56061   0.47383   0.98048   0.00000  Uiso   1.00
C190   C     0.64540   0.86674   0.16693   0.00000  Uiso   1.00
C191   C     0.65482   0.93616   0.07987   0.00000  Uiso   1.00
C192   C     0.69959   0.95442   0.05562   0.00000  Uiso   1.00
C193   C     0.76670   0.01054   0.98338   0.00000  Uiso   1.00
C194   C     0.59739   0.83723   0.36593   0.00000  Uiso   1.00
C195   C     0.56646   0.88186   0.44620   0.00000  Uiso   1.00
C196   C     0.57082   0.87530   0.58949   0.00000  Uiso   1.00
C197   C     0.56339   0.88561   0.82623   0.00000  Uiso   1.00
C198   C     0.66159   0.74446   0.31926   0.00000  Uiso   1.00
C199   C     0.63082   0.69060   0.22696   0.00000  Uiso   1.00
C200   C     0.63467   0.60222   0.20227   0.00000  Uiso   1.00
C201   C     0.60319   0.56496   0.11463   0.00000  Uiso   1.00
C202   C     0.67948   0.81732   0.22762   0.00000  Uiso   1.00
C203   C     0.72425   0.83549   0.20350   0.00000  Uiso   1.00
C204   C     0.73374   0.90491   0.11642   0.00000  Uiso   1.00
C205   C     0.63148   0.78781   0.42662   0.00000  Uiso   1.00
C206   C     0.63589   0.78119   0.56982   0.00000  Uiso   1.00
C207   C     0.60497   0.82579   0.65029   0.00000  Uiso   1.00
H208   H     0.57231   0.87393   0.16027   0.00000  Uiso   1.00
H209   H     0.53888   0.74116   0.03169   0.00000  Uiso   1.00
H210   H     0.62844   0.97440   0.03293   0.00000  Uiso   1.00
H211   H     0.54009   0.92010   0.39919   0.00000  Uiso   1.00
H212   H     0.51685   0.57217   0.91586   0.00000  Uiso   1.00
H213   H     0.70570   0.06398   0.91851   0.00000  Uiso   1.00
H214   H     0.51940   0.94950   0.69085   0.00000  Uiso   1.00
H215   H     0.68813   0.70598   0.36652   0.00000  Uiso   1.00
H216   H     0.66105   0.56399   0.24925   0.00000  Uiso   1.00
H217   H     0.75061   0.79723   0.25049   0.00000  Uiso   1.00
H218   H     0.66227   0.74294   0.61675   0.00000  Uiso   1.00
H219   H     0.61602   0.42838   0.09243   0.00000  Uiso   1.00
H220   H     0.80486   0.92019   0.09509   0.00000  Uiso   1.00
H221   H     0.61856   0.80570   0.86743   0.00000  Uiso   1.00
O222   O     0.54654   0.40991   0.92325   0.00000  Uiso   1.00
O223   O     0.79430   0.05515   0.92676   0.00000  Uiso   1.00
O224   O     0.54988   0.90494   0.94004   0.00000  Uiso   1.00
N225   N     0.54390   0.55781   0.97353   0.00000  Uiso   1.00
N226   N     0.72046   0.01761   0.97599   0.00000  Uiso   1.00
N227   N     0.54630   0.91060   0.69807   0.00000  Uiso   1.00
N228   N     0.59726   0.48044   0.06855   0.00000  Uiso   1.00
N229   N     0.77382   0.94024   0.07101   0.00000  Uiso   1.00
N230   N     0.59965   0.83322   0.79308   0.00000  Uiso   1.00
C231   C     0.09884   0.33545   0.70752   0.00000  Uiso   1.00
C232   C     0.09673   0.24002   0.66627   0.00000  Uiso   1.00
C233   C     0.06525   0.20289   0.57865   0.00000  Uiso   1.00
C234   C     0.06905   0.11448   0.55382   0.00000  Uiso   1.00
C235   C     0.06061   0.97383   0.48048   0.00000  Uiso   1.00
C236   C     0.14540   0.36674   0.66693   0.00000  Uiso   1.00
C237   C     0.15482   0.43616   0.57987   0.00000  Uiso   1.00
C238   C     0.19959   0.45442   0.55562   0.00000  Uiso   1.00
C239   C     0.26670   0.51054   0.48338   0.00000  Uiso   1.00
C240   C     0.09739   0.33723   0.86593   0.00000  Uiso   1.00
C241   C     0.06646   0.38186   0.94620   0.00000  Uiso   1.00
C242   C     0.07082   0.37530   0.08949   0.00000  Uiso   1.00
C243   C     0.06339   0.38561   0.32623   0.00000  Uiso   1.00
C244   C     0.16159   0.24446   0.81926   0.00000  Uiso   1.00
C245   C     0.13082   0.19060   0.72696   0.00000  Uiso   1.00
C246   C     0.13467   0.10222   0.70227   0.00000  Uiso   1.00
C247   C     0.10319   0.06496   0.61463   0.00000  Uiso   1.00
C248   C     0.17948   0.31732   0.72762   0.00000  Uiso   1.00
C249   C     0.22425   0.33549   0.70350   0.00000  Uiso   1.00
C250   C     0.23374   0.40491   0.61642   0.00000  Uiso   1.00
C251   C     0.13148   0.28781   0.92662   0.00000  Uiso   1.00
C252   C     0.13589   0.28119   0.06982   0.00000  Uiso   1.00
C253   C     0.10497   0.32579   0.15029   0.00000  Uiso   1.00
H254   H     0.07231   0.37393   0.66027   0.00000  Uiso   1.00
H255   H     0.03888   0.24116   0.53169   0.00000  Uiso   1.00
H256   H     0.12844   0.47440   0.53293   0.00000  Uiso   1.00
H257   H     0.04009   0.42010   0.89919   0.00000  Uiso   1.00
H258   H     0.01685   0.07217   0.41586   0.00000  Uiso   1.00
H259   H     0.20570   0.56398   0.41851   0.00000  Uiso   1.00
H260   H     0.01940   0.44950   0.19085   0.00000  Uiso   1.00
H261   H     0.18813   0.20598   0.86652   0.00000  Uiso   1.00
H262   H     0.16105   0.06399   0.74925   0.00000  Uiso   1.00
H263   H     0.25061   0.29723   0.75049   0.00000  Uiso   1.00
H264   H     0.16227   0.24294   0.11675   0.00000  Uiso   1.00
H265   H     0.11602   0.92838   0.59243   0.00000  Uiso   1.00
H266   H     0.30486   0.42019   0.59509   0.00000  Uiso   1.00
H267   H     0.11856   0.30570   0.36743   0.00000  Uiso   1.00
O268   O     0.04654   0.90991   0.42325   0.00000  Uiso   1.00
O269   O     0.29430   0.55515   0.42676   0.00000  Uiso   1.00
O270   O     0.04988   0.40494   0.44004   0.00000  Uiso   1.00
N271   N     0.04390   0.05781   0.47353   0.00000  Uiso   1.00
N272   N     0.22046   0.51761   0.47599   0.00000  Uiso   1.00
N273   N     0.04630   0.41060   0.19807   0.00000  Uiso   1.00
N274   N     0.09726   0.98044   0.56855   0.00000  Uiso   1.00
N275   N     0.27382   0.44024   0.57101   0.00000  Uiso   1.00
N276   N     0.09965   0.33322   0.29308   0.00000  Uiso   1.00
C277   C     0.40116   0.16455   0.20752   0.00000  Uiso   1.00
C278   C     0.40327   0.25998   0.16627   0.00000  Uiso   1.00
C279   C     0.43475   0.29711   0.07865   0.00000  Uiso   1.00
C280   C     0.43095   0.38552   0.05382   0.00000  Uiso   1.00
C281   C     0.43939   0.52617   0.98048   0.00000  Uiso   1.00
C282   C     0.35460   0.13326   0.16693   0.00000  Uiso   1.00
C283   C     0.34518   0.06384   0.07987   0.00000  Uiso   1.00
C284   C     0.30041   0.04558   0.05562   0.00000  Uiso   1.00
C285   C     0.23330   0.98946   0.98338   0.00000  Uiso   1.00
C286   C     0.40261   0.16277   0.36593   0.00000  Uiso   1.00
C287   C     0.43354   0.11814   0.44620   0.00000  Uiso   1.00
C288   C     0.42918   0.12470   0.58949   0.00000  Uiso   1.00
C289   C     0.43661   0.11439   0.82623   0.00000  Uiso   1.00
C290   C     0.33841   0.25554   0.31926   0.00000  Uiso   1.00
C291   C     0.36918   0.30940   0.22696   0.00000  Uiso   1.00
C292   C     0.36533   0.39778   0.20227   0.00000  Uiso   1.00
C293   C     0.39681   0.43504   0.11463   0.00000  Uiso   1.00
C294   C     0.32052   0.18268   0.22762   0.00000  Uiso   1.00
C295   C     0.27575   0.16451   0.20350   0.00000  Uiso   1.00
C296   C     0.26626   0.09509   0.11642   0.00000  Uiso   1.00
C297   C     0.36852   0.21219   0.42662   0.00000  Uiso   1.00
C298   C     0.36411   0.21881   0.56982   0.00000  Uiso   1.00
C299   C     0.39503   0.17421   0.65029   0.00000  Uiso   1.00
H300   H     0.42769   0.12607   0.16027   0.00000  Uiso   1.00
H301   H     0.46112   0.25884   0.03169   0.00000  Uiso   1.00
H302   H     0.37156   0.02560   0.03293   0.00000  Uiso   1.00
H303   H     0.45991   0.07990   0.39919   0.00000  Uiso   1.00
H304   H     0.48315   0.42783   0.91586   0.00000  Uiso   1.00
H305   H     0.29430   0.93602   0.91851   0.00000  Uiso   1.00
H306   H     0.48060   0.05050   0.69085   0.00000  Uiso   1.00
H307   H     0.31187   0.29402   0.36652   0.00000  Uiso   1.00
H308   H     0.33895   0.43601   0.24925   0.00000  Uiso   1.00
H309   H     0.24939   0.20277   0.25049   0.00000  Uiso   1.00
H310   H     0.33773   0.25706   0.61675   0.00000  Uiso   1.00
H311   H     0.38398   0.57162   0.09243   0.00000  Uiso   1.00
H312   H     0.19514   0.07981   0.09509   0.00000  Uiso   1.00
H313   H     0.38144   0.19430   0.86743   0.00000  Uiso   1.00
O314   O     0.45346   0.59009   0.92325   0.00000  Uiso   1.00
O315   O     0.20570   0.94485   0.92676   0.00000  Uiso   1.00
O316   O     0.45012   0.09506   0.94004   0.00000  Uiso   1.00
N317   N     0.45610   0.44219   0.97353   0.00000  Uiso   1.00
N318   N     0.27954   0.98239   0.97599   0.00000  Uiso   1.00
N319   N     0.45370   0.08940   0.69807   0.00000  Uiso   1.00
N320   N     0.40274   0.51956   0.06855   0.00000  Uiso   1.00
N321   N     0.22618   0.05976   0.07101   0.00000  Uiso   1.00
N322   N     0.40035   0.16678   0.79308   0.00000  Uiso   1.00
C323   C     0.90116   0.66455   0.70752   0.00000  Uiso   1.00
C324   C     0.90327   0.75998   0.66627   0.00000  Uiso   1.00
C325   C     0.93475   0.79711   0.57865   0.00000  Uiso   1.00
C326   C     0.93095   0.88552   0.55382   0.00000  Uiso   1.00
C327   C     0.93939   0.02617   0.48048   0.00000  Uiso   1.00
C328   C     0.85460   0.63326   0.66693   0.00000  Uiso   1.00
C329   C     0.84518   0.56384   0.57987   0.00000  Uiso   1.00
C330   C     0.80041   0.54558   0.55562   0.00000  Uiso   1.00
C331   C     0.73330   0.48946   0.48338   0.00000  Uiso   1.00
C332   C     0.90261   0.66277   0.86593   0.00000  Uiso   1.00
C333   C     0.93354   0.61814   0.94620   0.00000  Uiso   1.00
C334   C     0.92918   0.62470   0.08949   0.00000  Uiso   1.00
C335   C     0.93661   0.61439   0.32623   0.00000  Uiso   1.00
C336   C     0.83841   0.75554   0.81926   0.00000  Uiso   1.00
C337   C     0.86918   0.80940   0.72696   0.00000  Uiso   1.00
C338   C     0.86533   0.89778   0.70227   0.00000  Uiso   1.00
C339   C     0.89681   0.93504   0.61463   0.00000  Uiso   1.00
C340   C     0.82052   0.68268   0.72762   0.00000  Uiso   1.00
C341   C     0.77575   0.66451   0.70350   0.00000  Uiso   1.00
C342   C     0.76626   0.59509   0.61642   0.00000  Uiso   1.00
C343   C     0.86852   0.71219   0.92662   0.00000  Uiso   1.00
C344   C     0.86411   0.71881   0.06982   0.00000  Uiso   1.00
C345   C     0.89503   0.67421   0.15029   0.00000  Uiso   1.00
H346   H     0.92769   0.62607   0.66027   0.00000  Uiso   1.00
H347   H     0.96112   0.75884   0.53169   0.00000  Uiso   1.00
H348   H     0.87156   0.52560   0.53293   0.00000  Uiso   1.00
H349   H     0.95991   0.57990   0.89919   0.00000  Uiso   1.00
H350   H     0.98315   0.92783   0.41586   0.00000  Uiso   1.00
H351   H     0.79430   0.43602   0.41851   0.00000  Uiso   1.00
H352   H     0.98060   0.55050   0.19085   0.00000  Uiso   1.00
H353   H     0.81187   0.79402   0.86652   0.00000  Uiso   1.00
H354   H     0.83895   0.93601   0.74925   0.00000  Uiso   1.00
H355   H     0.74939   0.70277   0.75049   0.00000  Uiso   1.00
H356   H     0.83773   0.75706   0.11675   0.00000  Uiso   1.00
H357   H     0.88398   0.07162   0.59243   0.00000  Uiso   1.00
H358   H     0.69514   0.57981   0.59509   0.00000  Uiso   1.00
H359   H     0.88144   0.69430   0.36743   0.00000  Uiso   1.00
O360   O     0.95346   0.09009   0.42325   0.00000  Uiso   1.00
O361   O     0.70570   0.44485   0.42676   0.00000  Uiso   1.00
O362   O     0.95012   0.59506   0.44004   0.00000  Uiso   1.00
N363   N     0.95610   0.94219   0.47353   0.00000  Uiso   1.00
N364   N     0.77954   0.48239   0.47599   0.00000  Uiso   1.00
N365   N     0.95370   0.58940   0.19807   0.00000  Uiso   1.00
N366   N     0.90274   0.01956   0.56855   0.00000  Uiso   1.00
N367   N     0.72618   0.55976   0.57101   0.00000  Uiso   1.00
N368   N     0.90035   0.66678   0.29308   0.00000  Uiso   1.00
