data_job_04463
_audit_creation_date              2018-12-19
_audit_creation_method            'Materials Studio'
_symmetry_space_group_name_H-M    'P1'
_symmetry_Int_Tables_number       1
_symmetry_cell_setting            triclinic
loop_
_symmetry_equiv_pos_as_xyz
  x,y,z
_cell_length_a                    28.7193
_cell_length_b                    9.8298
_cell_length_c                    15.4117
_cell_angle_alpha                 89.9662
_cell_angle_beta                  89.9644
_cell_angle_gamma                 89.9648
loop_
_atom_site_label
_atom_site_type_symbol
_atom_site_fract_x
_atom_site_fract_y
_atom_site_fract_z
_atom_site_U_iso_or_equiv
_atom_site_adp_type
_atom_site_occupancy
C1     C     0.14702   0.16944   0.83259   0.00000  Uiso   1.00
C2     C     0.14476   0.12261   0.92685   0.00000  Uiso   1.00
C3     C     0.17325   0.02523   0.96476   0.00000  Uiso   1.00
C4     C     0.16565   0.99666   0.05185   0.00000  Uiso   1.00
C5     C     0.16744   0.91377   0.19099   0.00000  Uiso   1.00
C6     C     0.09850   0.14639   0.79525   0.00000  Uiso   1.00
C7     C     0.08809   0.06903   0.72251   0.00000  Uiso   1.00
C8     C     0.04155   0.06049   0.69883   0.00000  Uiso   1.00
C9     C     0.97152   0.01462   0.63363   0.00000  Uiso   1.00
C10    C     0.15382   0.32320   0.83547   0.00000  Uiso   1.00
C11    C     0.18992   0.39452   0.79653   0.00000  Uiso   1.00
C12    C     0.18995   0.53486   0.80669   0.00000  Uiso   1.00
C13    C     0.20581   0.76351   0.80394   0.00000  Uiso   1.00
C14    C     0.08287   0.29187   0.91986   0.00000  Uiso   1.00
C15    C     0.10992   0.18911   0.97425   0.00000  Uiso   1.00
C16    C     0.10228   0.16068   0.06131   0.00000  Uiso   1.00
C17    C     0.13075   0.06328   0.09934   0.00000  Uiso   1.00
C18    C     0.06366   0.21289   0.84265   0.00000  Uiso   1.00
C19    C     0.01712   0.20448   0.81907   0.00000  Uiso   1.00
C20    C     0.00664   0.12711   0.74632   0.00000  Uiso   1.00
C21    C     0.11898   0.38971   0.88288   0.00000  Uiso   1.00
C22    C     0.11895   0.52996   0.89309   0.00000  Uiso   1.00
C23    C     0.15504   0.60147   0.85418   0.00000  Uiso   1.00
H24    H     0.17414   0.11767   0.79568   0.00000  Uiso   1.00
H25    H     0.20021   0.97378   0.92805   0.00000  Uiso   1.00
H26    H     0.11507   0.01759   0.68584   0.00000  Uiso   1.00
H27    H     0.21688   0.34302   0.75985   0.00000  Uiso   1.00
H28    H     0.21373   0.84355   0.09569   0.00000  Uiso   1.00
H29    H     0.03420   0.93595   0.58497   0.00000  Uiso   1.00
H30    H     0.24890   0.62220   0.74104   0.00000  Uiso   1.00
H31    H     0.05574   0.34364   0.95676   0.00000  Uiso   1.00
H32    H     0.07531   0.21216   0.09798   0.00000  Uiso   1.00
H33    H     0.99016   0.25596   0.85576   0.00000  Uiso   1.00
H34    H     0.09198   0.58139   0.92978   0.00000  Uiso   1.00
H35    H     0.11236   0.03701   0.23361   0.00000  Uiso   1.00
H36    H     0.93283   0.12942   0.72288   0.00000  Uiso   1.00
H37    H     0.14752   0.81567   0.87896   0.00000  Uiso   1.00
O38    O     0.17805   0.84967   0.25463   0.00000  Uiso   1.00
O39    O     0.94251   0.97093   0.58457   0.00000  Uiso   1.00
O40    O     0.22419   0.87126   0.78933   0.00000  Uiso   1.00
N41    N     0.18719   0.90714   0.10878   0.00000  Uiso   1.00
N42    N     0.01934   0.99352   0.63129   0.00000  Uiso   1.00
N43    N     0.22006   0.63510   0.77718   0.00000  Uiso   1.00
N44    N     0.13265   0.01125   0.18299   0.00000  Uiso   1.00
N45    N     0.96480   0.09762   0.70550   0.00000  Uiso   1.00
N46    N     0.16551   0.73921   0.85139   0.00000  Uiso   1.00
C47    C     0.17560   0.32994   0.51359   0.00000  Uiso   1.00
C48    C     0.17453   0.37303   0.41854   0.00000  Uiso   1.00
C49    C     0.20492   0.46394   0.37930   0.00000  Uiso   1.00
C50    C     0.19815   0.48998   0.29166   0.00000  Uiso   1.00
C51    C     0.20192   0.56647   0.15118   0.00000  Uiso   1.00
C52    C     0.12748   0.36250   0.54996   0.00000  Uiso   1.00
C53    C     0.11832   0.44453   0.62123   0.00000  Uiso   1.00
C54    C     0.07194   0.46169   0.64423   0.00000  Uiso   1.00
C55    C     0.00268   0.52174   0.70782   0.00000  Uiso   1.00
C56    C     0.17951   0.17523   0.51342   0.00000  Uiso   1.00
C57    C     0.21409   0.09980   0.55398   0.00000  Uiso   1.00
C58    C     0.21150   0.95928   0.54623   0.00000  Uiso   1.00
C59    C     0.22302   0.72858   0.55309   0.00000  Uiso   1.00
C60    C     0.10952   0.21454   0.42773   0.00000  Uiso   1.00
C61    C     0.13863   0.31035   0.37191   0.00000  Uiso   1.00
C62    C     0.13181   0.33626   0.28430   0.00000  Uiso   1.00
C63    C     0.16219   0.42718   0.24494   0.00000  Uiso   1.00
C64    C     0.09159   0.29982   0.50333   0.00000  Uiso   1.00
C65    C     0.04521   0.31685   0.52623   0.00000  Uiso   1.00
C66    C     0.03598   0.39890   0.59751   0.00000  Uiso   1.00
C67    C     0.14362   0.11255   0.46678   0.00000  Uiso   1.00
C68    C     0.14097   0.97212   0.45898   0.00000  Uiso   1.00
C69    C     0.17554   0.89649   0.49951   0.00000  Uiso   1.00
H70    H     0.20355   0.37875   0.54990   0.00000  Uiso   1.00
H71    H     0.23270   0.51243   0.41541   0.00000  Uiso   1.00
H72    H     0.14611   0.49301   0.65731   0.00000  Uiso   1.00
H73    H     0.24186   0.14834   0.59006   0.00000  Uiso   1.00
H74    H     0.24917   0.63305   0.24575   0.00000  Uiso   1.00
H75    H     0.06660   0.59206   0.75582   0.00000  Uiso   1.00
H76    H     0.26851   0.86525   0.61403   0.00000  Uiso   1.00
H77    H     0.08157   0.16574   0.39142   0.00000  Uiso   1.00
H78    H     0.10403   0.28774   0.24823   0.00000  Uiso   1.00
H79    H     0.01744   0.26832   0.49013   0.00000  Uiso   1.00
H80    H     0.11319   0.92365   0.42288   0.00000  Uiso   1.00
H81    H     0.14474   0.45068   0.11006   0.00000  Uiso   1.00
H82    H     0.96216   0.40969   0.62014   0.00000  Uiso   1.00
H83    H     0.16407   0.68288   0.47833   0.00000  Uiso   1.00
O84    O     0.21392   0.62600   0.08658   0.00000  Uiso   1.00
O85    O     0.97439   0.57220   0.75578   0.00000  Uiso   1.00
O86    O     0.23929   0.61865   0.56974   0.00000  Uiso   1.00
N87    N     0.22152   0.57336   0.23346   0.00000  Uiso   1.00
N88    N     0.05082   0.53506   0.71034   0.00000  Uiso   1.00
N89    N     0.23958   0.85555   0.57779   0.00000  Uiso   1.00
N90    N     0.16532   0.47523   0.16045   0.00000  Uiso   1.00
N91    N     0.99463   0.43693   0.63733   0.00000  Uiso   1.00
N92    N     0.18339   0.75742   0.50478   0.00000  Uiso   1.00
C93    C     0.37488   0.72107   0.70174   0.00000  Uiso   1.00
C94    C     0.37699   0.67461   0.60743   0.00000  Uiso   1.00
C95    C     0.34842   0.57754   0.56959   0.00000  Uiso   1.00
C96    C     0.35588   0.54927   0.48243   0.00000  Uiso   1.00
C97    C     0.35387   0.46696   0.34323   0.00000  Uiso   1.00
C98    C     0.42345   0.69760   0.73881   0.00000  Uiso   1.00
C99    C     0.43395   0.61989   0.81142   0.00000  Uiso   1.00
C100   C     0.48052   0.61100   0.83486   0.00000  Uiso   1.00
C101   C     0.55064   0.56447   0.89966   0.00000  Uiso   1.00
C102   C     0.36811   0.87489   0.69903   0.00000  Uiso   1.00
C103   C     0.33209   0.94625   0.73822   0.00000  Uiso   1.00
C104   C     0.33208   0.08663   0.72818   0.00000  Uiso   1.00
C105   C     0.31628   0.31536   0.73122   0.00000  Uiso   1.00
C106   C     0.43893   0.84349   0.61425   0.00000  Uiso   1.00
C107   C     0.41178   0.74110   0.55991   0.00000  Uiso   1.00
C108   C     0.41928   0.71298   0.47278   0.00000  Uiso   1.00
C109   C     0.39073   0.61589   0.43482   0.00000  Uiso   1.00
C110   C     0.45824   0.76409   0.69129   0.00000  Uiso   1.00
C111   C     0.50481   0.75532   0.71462   0.00000  Uiso   1.00
C112   C     0.51538   0.67761   0.78725   0.00000  Uiso   1.00
C113   C     0.40290   0.94138   0.65150   0.00000  Uiso   1.00
C114   C     0.40295   0.08168   0.64141   0.00000  Uiso   1.00
C115   C     0.36693   0.15324   0.68057   0.00000  Uiso   1.00
H116   H     0.34780   0.66931   0.73875   0.00000  Uiso   1.00
H117   H     0.32150   0.52610   0.60639   0.00000  Uiso   1.00
H118   H     0.40702   0.56846   0.84819   0.00000  Uiso   1.00
H119   H     0.30517   0.89476   0.77499   0.00000  Uiso   1.00
H120   H     0.30770   0.39661   0.43870   0.00000  Uiso   1.00
H121   H     0.48801   0.48596   0.94857   0.00000  Uiso   1.00
H122   H     0.27325   0.17404   0.79422   0.00000  Uiso   1.00
H123   H     0.46602   0.89526   0.57725   0.00000  Uiso   1.00
H124   H     0.44621   0.76445   0.43602   0.00000  Uiso   1.00
H125   H     0.53172   0.80680   0.67783   0.00000  Uiso   1.00
H126   H     0.42988   0.13310   0.60463   0.00000  Uiso   1.00
H127   H     0.40892   0.59006   0.30043   0.00000  Uiso   1.00
H128   H     0.58923   0.67941   0.81030   0.00000  Uiso   1.00
H129   H     0.37447   0.36749   0.65594   0.00000  Uiso   1.00
O130   O     0.34315   0.40317   0.27959   0.00000  Uiso   1.00
O131   O     0.57971   0.52042   0.94853   0.00000  Uiso   1.00
O132   O     0.29795   0.42316   0.74601   0.00000  Uiso   1.00
N133   N     0.33423   0.46011   0.42553   0.00000  Uiso   1.00
N134   N     0.50281   0.54363   0.90223   0.00000  Uiso   1.00
N135   N     0.30204   0.18693   0.75794   0.00000  Uiso   1.00
N136   N     0.38870   0.56421   0.35113   0.00000  Uiso   1.00
N137   N     0.55728   0.64772   0.82782   0.00000  Uiso   1.00
N138   N     0.35650   0.29102   0.68353   0.00000  Uiso   1.00
C139   C     0.34205   0.87852   0.02051   0.00000  Uiso   1.00
C140   C     0.34323   0.92136   0.11557   0.00000  Uiso   1.00
C141   C     0.31286   0.01221   0.15496   0.00000  Uiso   1.00
C142   C     0.31973   0.03801   0.24258   0.00000  Uiso   1.00
C143   C     0.31611   0.11414   0.38310   0.00000  Uiso   1.00
C144   C     0.39012   0.91109   0.98395   0.00000  Uiso   1.00
C145   C     0.39918   0.99329   0.91267   0.00000  Uiso   1.00
C146   C     0.44553   0.01043   0.88949   0.00000  Uiso   1.00
C147   C     0.51471   0.07054   0.82563   0.00000  Uiso   1.00
C148   C     0.33818   0.72381   0.02065   0.00000  Uiso   1.00
C149   C     0.30357   0.64854   0.98020   0.00000  Uiso   1.00
C150   C     0.30620   0.50801   0.98790   0.00000  Uiso   1.00
C151   C     0.29472   0.27734   0.98102   0.00000  Uiso   1.00
C152   C     0.40826   0.76278   0.10606   0.00000  Uiso   1.00
C153   C     0.37919   0.85849   0.16203   0.00000  Uiso   1.00
C154   C     0.38612   0.88416   0.24962   0.00000  Uiso   1.00
C155   C     0.35576   0.97503   0.28914   0.00000  Uiso   1.00
C156   C     0.42609   0.84823   0.03041   0.00000  Uiso   1.00
C157   C     0.47244   0.86524   0.00733   0.00000  Uiso   1.00
C158   C     0.48156   0.94746   0.93604   0.00000  Uiso   1.00
C159   C     0.37414   0.66094   0.06712   0.00000  Uiso   1.00
C160   C     0.37683   0.52050   0.07487   0.00000  Uiso   1.00
C161   C     0.34223   0.44503   0.03445   0.00000  Uiso   1.00
H162   H     0.31405   0.92746   0.98433   0.00000  Uiso   1.00
H163   H     0.28503   0.06085   0.11898   0.00000  Uiso   1.00
H164   H     0.37134   0.04191   0.87672   0.00000  Uiso   1.00
H165   H     0.27575   0.69723   0.94425   0.00000  Uiso   1.00
H166   H     0.26873   0.18104   0.28874   0.00000  Uiso   1.00
H167   H     0.45071   0.14109   0.77791   0.00000  Uiso   1.00
H168   H     0.24913   0.41424   0.92031   0.00000  Uiso   1.00
H169   H     0.43627   0.71384   0.14224   0.00000  Uiso   1.00
H170   H     0.41395   0.83550   0.28556   0.00000  Uiso   1.00
H171   H     0.50026   0.81657   0.04330   0.00000  Uiso   1.00
H172   H     0.40466   0.47188   0.11083   0.00000  Uiso   1.00
H173   H     0.37337   0.99815   0.42395   0.00000  Uiso   1.00
H174   H     0.55535   0.95819   0.91311   0.00000  Uiso   1.00
H175   H     0.35377   0.23134   0.05551   0.00000  Uiso   1.00
O176   O     0.30417   0.17351   0.44777   0.00000  Uiso   1.00
O177   O     0.54292   0.12107   0.77757   0.00000  Uiso   1.00
O178   O     0.27846   0.16748   0.96439   0.00000  Uiso   1.00
N179   N     0.29641   0.12128   0.30090   0.00000  Uiso   1.00
N180   N     0.46656   0.08394   0.82331   0.00000  Uiso   1.00
N181   N     0.27810   0.40440   0.95642   0.00000  Uiso   1.00
N182   N     0.35272   0.02286   0.37365   0.00000  Uiso   1.00
N183   N     0.52286   0.98553   0.89606   0.00000  Uiso   1.00
N184   N     0.33440   0.30598   0.02917   0.00000  Uiso   1.00
C185   C     0.84536   0.82882   0.01490   0.00000  Uiso   1.00
C186   C     0.84643   0.87167   0.91981   0.00000  Uiso   1.00
C187   C     0.81599   0.96245   0.88053   0.00000  Uiso   1.00
C188   C     0.82277   0.98828   0.79285   0.00000  Uiso   1.00
C189   C     0.81897   0.06440   0.65230   0.00000  Uiso   1.00
C190   C     0.89346   0.86149   0.05116   0.00000  Uiso   1.00
C191   C     0.90257   0.94371   0.12232   0.00000  Uiso   1.00
C192   C     0.94895   0.96095   0.14521   0.00000  Uiso   1.00
C193   C     0.01817   0.02121   0.20862   0.00000  Uiso   1.00
C194   C     0.84153   0.67411   0.01491   0.00000  Uiso   1.00
C195   C     0.80698   0.59876   0.05561   0.00000  Uiso   1.00
C196   C     0.80963   0.45823   0.04800   0.00000  Uiso   1.00
C197   C     0.79823   0.22754   0.05513   0.00000  Uiso   1.00
C198   C     0.91151   0.71323   0.92904   0.00000  Uiso   1.00
C199   C     0.88236   0.80888   0.87318   0.00000  Uiso   1.00
C200   C     0.88918   0.83457   0.78553   0.00000  Uiso   1.00
C201   C     0.85876   0.92538   0.74613   0.00000  Uiso   1.00
C202   C     0.92939   0.79871   0.00452   0.00000  Uiso   1.00
C203   C     0.97576   0.81583   0.02732   0.00000  Uiso   1.00
C204   C     0.98494   0.89806   0.09849   0.00000  Uiso   1.00
C205   C     0.87746   0.61132   0.96827   0.00000  Uiso   1.00
C206   C     0.88017   0.47088   0.96061   0.00000  Uiso   1.00
C207   C     0.84563   0.39534   0.00128   0.00000  Uiso   1.00
H208   H     0.81739   0.87771   0.05122   0.00000  Uiso   1.00
H209   H     0.78819   0.01103   0.91665   0.00000  Uiso   1.00
H210   H     0.87476   0.99228   0.15840   0.00000  Uiso   1.00
H211   H     0.77918   0.64739   0.09170   0.00000  Uiso   1.00
H212   H     0.77168   0.13120   0.74689   0.00000  Uiso   1.00
H213   H     0.95421   0.09162   0.25666   0.00000  Uiso   1.00
H214   H     0.75266   0.36434   0.11601   0.00000  Uiso   1.00
H215   H     0.93949   0.66435   0.89273   0.00000  Uiso   1.00
H216   H     0.91699   0.78597   0.74946   0.00000  Uiso   1.00
H217   H     0.00356   0.76722   0.99122   0.00000  Uiso   1.00
H218   H     0.90798   0.42233   0.92451   0.00000  Uiso   1.00
H219   H     0.87622   0.94853   0.61119   0.00000  Uiso   1.00
H220   H     0.05875   0.90895   0.12097   0.00000  Uiso   1.00
H221   H     0.85720   0.18168   0.98031   0.00000  Uiso   1.00
O222   O     0.80696   0.12375   0.58766   0.00000  Uiso   1.00
O223   O     0.04643   0.07180   0.25647   0.00000  Uiso   1.00
O224   O     0.78200   0.11764   0.07193   0.00000  Uiso   1.00
N225   N     0.79937   0.07150   0.73461   0.00000  Uiso   1.00
N226   N     0.97002   0.03451   0.21121   0.00000  Uiso   1.00
N227   N     0.78160   0.35457   0.07973   0.00000  Uiso   1.00
N228   N     0.85562   0.97320   0.66159   0.00000  Uiso   1.00
N229   N     0.02627   0.93622   0.13819   0.00000  Uiso   1.00
N230   N     0.83785   0.25627   0.00671   0.00000  Uiso   1.00
C231   C     0.87255   0.66691   0.33497   0.00000  Uiso   1.00
C232   C     0.87490   0.62008   0.42922   0.00000  Uiso   1.00
C233   C     0.84660   0.52233   0.46719   0.00000  Uiso   1.00
C234   C     0.85426   0.49384   0.55427   0.00000  Uiso   1.00
C235   C     0.85264   0.41090   0.69340   0.00000  Uiso   1.00
C236   C     0.92110   0.64449   0.29751   0.00000  Uiso   1.00
C237   C     0.93166   0.56727   0.22474   0.00000  Uiso   1.00
C238   C     0.97821   0.55935   0.20094   0.00000  Uiso   1.00
C239   C     0.04833   0.51438   0.13555   0.00000  Uiso   1.00
C240   C     0.86545   0.82058   0.33789   0.00000  Uiso   1.00
C241   C     0.82921   0.89144   0.29904   0.00000  Uiso   1.00
C242   C     0.82891   0.03177   0.30922   0.00000  Uiso   1.00
C243   C     0.81261   0.26022   0.30652   0.00000  Uiso   1.00
C244   C     0.93647   0.79014   0.42209   0.00000  Uiso   1.00
C245   C     0.90962   0.68702   0.47654   0.00000  Uiso   1.00
C246   C     0.91732   0.65867   0.56358   0.00000  Uiso   1.00
C247   C     0.88904   0.56089   0.60167   0.00000  Uiso   1.00
C248   C     0.95582   0.71142   0.34483   0.00000  Uiso   1.00
C249   C     0.00238   0.70361   0.32113   0.00000  Uiso   1.00
C250   C     0.01300   0.62640   0.24834   0.00000  Uiso   1.00
C251   C     0.90016   0.88752   0.38521   0.00000  Uiso   1.00
C252   C     0.89993   0.02777   0.39544   0.00000  Uiso   1.00
C253   C     0.86369   0.09883   0.35662   0.00000  Uiso   1.00
H254   H     0.84552   0.61479   0.29813   0.00000  Uiso   1.00
H255   H     0.81974   0.47055   0.43055   0.00000  Uiso   1.00
H256   H     0.90478   0.51550   0.18813   0.00000  Uiso   1.00
H257   H     0.80235   0.83961   0.26243   0.00000  Uiso   1.00
H258   H     0.80648   0.34010   0.59822   0.00000  Uiso   1.00
H259   H     0.98579   0.43492   0.08705   0.00000  Uiso   1.00
H260   H     0.76979   0.11837   0.24372   0.00000  Uiso   1.00
H261   H     0.96350   0.84225   0.45893   0.00000  Uiso   1.00
H262   H     0.94419   0.71048   0.60018   0.00000  Uiso   1.00
H263   H     0.02923   0.75543   0.35776   0.00000  Uiso   1.00
H264   H     0.92680   0.07954   0.43206   0.00000  Uiso   1.00
H265   H     0.90749   0.53484   0.73590   0.00000  Uiso   1.00
H266   H     0.08680   0.62966   0.22472   0.00000  Uiso   1.00
H267   H     0.87080   0.31311   0.38140   0.00000  Uiso   1.00
O268   O     0.84216   0.34665   0.75706   0.00000  Uiso   1.00
O269   O     0.07742   0.47108   0.08642   0.00000  Uiso   1.00
O270   O     0.79403   0.36774   0.29198   0.00000  Uiso   1.00
N271   N     0.83289   0.40404   0.61124   0.00000  Uiso   1.00
N272   N     0.00054   0.49267   0.13333   0.00000  Uiso   1.00
N273   N     0.79861   0.13164   0.27979   0.00000  Uiso   1.00
N274   N     0.88724   0.50882   0.68532   0.00000  Uiso   1.00
N275   N     0.05490   0.59746   0.20742   0.00000  Uiso   1.00
N276   N     0.85296   0.23643   0.35388   0.00000  Uiso   1.00
C277   C     0.67701   0.37800   0.52016   0.00000  Uiso   1.00
C278   C     0.67592   0.42100   0.61519   0.00000  Uiso   1.00
C279   C     0.70628   0.51195   0.65433   0.00000  Uiso   1.00
C280   C     0.69950   0.53789   0.74198   0.00000  Uiso   1.00
C281   C     0.70325   0.61426   0.88242   0.00000  Uiso   1.00
C282   C     0.62888   0.41045   0.48388   0.00000  Uiso   1.00
C283   C     0.61969   0.49253   0.41261   0.00000  Uiso   1.00
C284   C     0.57330   0.50957   0.38971   0.00000  Uiso   1.00
C285   C     0.50402   0.56949   0.32625   0.00000  Uiso   1.00
C286   C     0.68097   0.22330   0.52037   0.00000  Uiso   1.00
C287   C     0.71557   0.14800   0.47976   0.00000  Uiso   1.00
C288   C     0.71303   0.00748   0.48757   0.00000  Uiso   1.00
C289   C     0.72463   0.77681   0.48077   0.00000  Uiso   1.00
C290   C     0.61096   0.26233   0.60621   0.00000  Uiso   1.00
C291   C     0.64004   0.35817   0.66193   0.00000  Uiso   1.00
C292   C     0.63321   0.38397   0.74954   0.00000  Uiso   1.00
C293   C     0.66356   0.47495   0.78880   0.00000  Uiso   1.00
C294   C     0.59300   0.34763   0.53062   0.00000  Uiso   1.00
C295   C     0.54662   0.36455   0.50782   0.00000  Uiso   1.00
C296   C     0.53736   0.44663   0.43653   0.00000  Uiso   1.00
C297   C     0.64509   0.16047   0.56711   0.00000  Uiso   1.00
C298   C     0.64250   0.02003   0.57498   0.00000  Uiso   1.00
C299   C     0.67709   0.94454   0.53439   0.00000  Uiso   1.00
H300   H     0.70494   0.42692   0.48376   0.00000  Uiso   1.00
H301   H     0.73404   0.56056   0.61813   0.00000  Uiso   1.00
H302   H     0.64746   0.54112   0.37644   0.00000  Uiso   1.00
H303   H     0.74333   0.19666   0.44359   0.00000  Uiso   1.00
H304   H     0.75047   0.68106   0.78771   0.00000  Uiso   1.00
H305   H     0.56792   0.64004   0.27808   0.00000  Uiso   1.00
H306   H     0.77007   0.91367   0.41967   0.00000  Uiso   1.00
H307   H     0.58303   0.21341   0.64260   0.00000  Uiso   1.00
H308   H     0.60544   0.33534   0.78570   0.00000  Uiso   1.00
H309   H     0.51886   0.31591   0.54400   0.00000  Uiso   1.00
H310   H     0.61473   0.97144   0.61115   0.00000  Uiso   1.00
H311   H     0.64610   0.49827   0.92371   0.00000  Uiso   1.00
H312   H     0.46354   0.45724   0.41407   0.00000  Uiso   1.00
H313   H     0.66570   0.73087   0.55567   0.00000  Uiso   1.00
O314   O     0.71522   0.67376   0.94697   0.00000  Uiso   1.00
O315   O     0.47572   0.61992   0.27834   0.00000  Uiso   1.00
O316   O     0.74094   0.66694   0.46411   0.00000  Uiso   1.00
N317   N     0.72284   0.62128   0.80009   0.00000  Uiso   1.00
N318   N     0.55216   0.58295   0.32362   0.00000  Uiso   1.00
N319   N     0.74115   0.90385   0.45598   0.00000  Uiso   1.00
N320   N     0.66668   0.52292   0.87327   0.00000  Uiso   1.00
N321   N     0.49600   0.48459   0.39680   0.00000  Uiso   1.00
N322   N     0.68499   0.80549   0.52916   0.00000  Uiso   1.00
C323   C     0.64524   0.21951   0.20160   0.00000  Uiso   1.00
C324   C     0.64298   0.17328   0.10727   0.00000  Uiso   1.00
C325   C     0.67159   0.07657   0.06901   0.00000  Uiso   1.00
C326   C     0.66396   0.04847   0.98190   0.00000  Uiso   1.00
C327   C     0.66576   0.96655   0.84259   0.00000  Uiso   1.00
C328   C     0.59679   0.19551   0.23916   0.00000  Uiso   1.00
C329   C     0.58658   0.11751   0.31180   0.00000  Uiso   1.00
C330   C     0.54007   0.10815   0.33571   0.00000  Uiso   1.00
C331   C     0.47018   0.06083   0.40120   0.00000  Uiso   1.00
C332   C     0.65178   0.37339   0.19899   0.00000  Uiso   1.00
C333   C     0.68779   0.44495   0.23788   0.00000  Uiso   1.00
C334   C     0.68758   0.58536   0.22800   0.00000  Uiso   1.00
C335   C     0.70306   0.81422   0.23112   0.00000  Uiso   1.00
C336   C     0.58080   0.34160   0.11493   0.00000  Uiso   1.00
C337   C     0.60798   0.23960   0.06019   0.00000  Uiso   1.00
C338   C     0.60030   0.21165   0.97311   0.00000  Uiso   1.00
C339   C     0.62890   0.11491   0.93473   0.00000  Uiso   1.00
C340   C     0.56179   0.26183   0.19208   0.00000  Uiso   1.00
C341   C     0.51529   0.25259   0.21590   0.00000  Uiso   1.00
C342   C     0.50501   0.17459   0.28855   0.00000  Uiso   1.00
C343   C     0.61678   0.43971   0.15191   0.00000  Uiso   1.00
C344   C     0.61651   0.58003   0.14197   0.00000  Uiso   1.00
C345   C     0.65251   0.65180   0.18083   0.00000  Uiso   1.00
H346   H     0.67248   0.16788   0.23826   0.00000  Uiso   1.00
H347   H     0.69867   0.02526   0.10547   0.00000  Uiso   1.00
H348   H     0.61367   0.06621   0.34822   0.00000  Uiso   1.00
H349   H     0.71487   0.39360   0.27431   0.00000  Uiso   1.00
H350   H     0.71226   0.89635   0.93749   0.00000  Uiso   1.00
H351   H     0.53304   0.98274   0.44936   0.00000  Uiso   1.00
H352   H     0.74644   0.67310   0.29351   0.00000  Uiso   1.00
H353   H     0.55355   0.39323   0.07827   0.00000  Uiso   1.00
H354   H     0.57322   0.26298   0.93669   0.00000  Uiso   1.00
H355   H     0.48822   0.30393   0.17945   0.00000  Uiso   1.00
H356   H     0.58942   0.63132   0.10553   0.00000  Uiso   1.00
H357   H     0.61044   0.08929   0.80051   0.00000  Uiso   1.00
H358   H     0.43122   0.17568   0.31239   0.00000  Uiso   1.00
H359   H     0.64461   0.86604   0.15652   0.00000  Uiso   1.00
O360   O     0.67642   0.90303   0.77876   0.00000  Uiso   1.00
O361   O     0.44129   0.01640   0.45033   0.00000  Uiso   1.00
O362   O     0.72126   0.92213   0.24584   0.00000  Uiso   1.00
N363   N     0.68560   0.95965   0.92468   0.00000  Uiso   1.00
N364   N     0.51804   0.04040   0.40324   0.00000  Uiso   1.00
N365   N     0.71754   0.68584   0.25755   0.00000  Uiso   1.00
N366   N     0.63081   0.06347   0.85097   0.00000  Uiso   1.00
N367   N     0.46325   0.14422   0.32953   0.00000  Uiso   1.00
N368   N     0.66275   0.78966   0.18384   0.00000  Uiso   1.00
