data_job_00825
_audit_creation_date              2018-12-19
_audit_creation_method            'Materials Studio'
_symmetry_space_group_name_H-M    'P1'
_symmetry_Int_Tables_number       1
_symmetry_cell_setting            triclinic
loop_
_symmetry_equiv_pos_as_xyz
  x,y,z
_cell_length_a                    25.4822
_cell_length_b                    7.8679
_cell_length_c                    25.7018
_cell_angle_alpha                 90.0000
_cell_angle_beta                  66.1603
_cell_angle_gamma                 90.0000
loop_
_atom_site_label
_atom_site_type_symbol
_atom_site_fract_x
_atom_site_fract_y
_atom_site_fract_z
_atom_site_U_iso_or_equiv
_atom_site_adp_type
_atom_site_occupancy
C1     C     0.10418   0.96160   0.34424   0.00000  Uiso   1.00
C2     C     0.09616   0.83150   0.39082   0.00000  Uiso   1.00
C3     C     0.10608   0.85957   0.43939   0.00000  Uiso   1.00
C4     C     0.09622   0.72425   0.47684   0.00000  Uiso   1.00
C5     C     0.08670   0.54618   0.55080   0.00000  Uiso   1.00
C6     C     0.14569   0.88123   0.28890   0.00000  Uiso   1.00
C7     C     0.19725   0.95114   0.25177   0.00000  Uiso   1.00
C8     C     0.22908   0.85769   0.20342   0.00000  Uiso   1.00
C9     C     0.29643   0.75690   0.11913   0.00000  Uiso   1.00
C10    C     0.04659   0.97319   0.33939   0.00000  Uiso   1.00
C11    C     0.01484   0.12042   0.34468   0.00000  Uiso   1.00
C12    C     0.96323   0.10440   0.33883   0.00000  Uiso   1.00
C13    C     0.87673   0.14639   0.33291   0.00000  Uiso   1.00
C14    C     0.06900   0.67137   0.32439   0.00000  Uiso   1.00
C15    C     0.07705   0.67385   0.38004   0.00000  Uiso   1.00
C16    C     0.06717   0.53846   0.41743   0.00000  Uiso   1.00
C17    C     0.07708   0.56633   0.46604   0.00000  Uiso   1.00
C18    C     0.12659   0.72359   0.27812   0.00000  Uiso   1.00
C19    C     0.15834   0.63003   0.22981   0.00000  Uiso   1.00
C20    C     0.20994   0.69977   0.19262   0.00000  Uiso   1.00
C21    C     0.02748   0.81555   0.32861   0.00000  Uiso   1.00
C22    C     0.97592   0.79931   0.32273   0.00000  Uiso   1.00
C23    C     0.94410   0.94648   0.32802   0.00000  Uiso   1.00
H24    H     0.11905   0.08433   0.35263   0.00000  Uiso   1.00
H25    H     0.12087   0.98158   0.44771   0.00000  Uiso   1.00
H26    H     0.21202   0.07314   0.26012   0.00000  Uiso   1.00
H27    H     0.02964   0.24239   0.35303   0.00000  Uiso   1.00
H28    H     0.11449   0.79812   0.54836   0.00000  Uiso   1.00
H29    H     0.30667   0.99120   0.15281   0.00000  Uiso   1.00
H30    H     0.92207   0.34811   0.34872   0.00000  Uiso   1.00
H31    H     0.05413   0.54864   0.31600   0.00000  Uiso   1.00
H32    H     0.05238   0.41648   0.40907   0.00000  Uiso   1.00
H33    H     0.14354   0.50805   0.22148   0.00000  Uiso   1.00
H34    H     0.96115   0.67730   0.31439   0.00000  Uiso   1.00
H35    H     0.05890   0.33946   0.51700   0.00000  Uiso   1.00
H36    H     0.25108   0.53255   0.12145   0.00000  Uiso   1.00
H37    H     0.86649   0.88945   0.31736   0.00000  Uiso   1.00
O38    O     0.08673   0.49150   0.59456   0.00000  Uiso   1.00
O39    O     0.33887   0.74484   0.07561   0.00000  Uiso   1.00
O40    O     0.83428   0.21309   0.33264   0.00000  Uiso   1.00
N41    N     0.10163   0.70832   0.52822   0.00000  Uiso   1.00
N42    N     0.28132   0.88883   0.15840   0.00000  Uiso   1.00
N43    N     0.92176   0.22251   0.34154   0.00000  Uiso   1.00
N44    N     0.07172   0.46152   0.51134   0.00000  Uiso   1.00
N45    N     0.25141   0.64203   0.14153   0.00000  Uiso   1.00
N46    N     0.89185   0.97572   0.32467   0.00000  Uiso   1.00
C47    C     0.60418   0.46160   0.34424   0.00000  Uiso   1.00
C48    C     0.59616   0.33150   0.39082   0.00000  Uiso   1.00
C49    C     0.60608   0.35957   0.43939   0.00000  Uiso   1.00
C50    C     0.59622   0.22425   0.47684   0.00000  Uiso   1.00
C51    C     0.58670   0.04618   0.55080   0.00000  Uiso   1.00
C52    C     0.64569   0.38123   0.28890   0.00000  Uiso   1.00
C53    C     0.69725   0.45114   0.25177   0.00000  Uiso   1.00
C54    C     0.72908   0.35769   0.20342   0.00000  Uiso   1.00
C55    C     0.79643   0.25690   0.11913   0.00000  Uiso   1.00
C56    C     0.54659   0.47319   0.33939   0.00000  Uiso   1.00
C57    C     0.51484   0.62042   0.34468   0.00000  Uiso   1.00
C58    C     0.46323   0.60440   0.33883   0.00000  Uiso   1.00
C59    C     0.37673   0.64639   0.33291   0.00000  Uiso   1.00
C60    C     0.56900   0.17137   0.32439   0.00000  Uiso   1.00
C61    C     0.57705   0.17385   0.38004   0.00000  Uiso   1.00
C62    C     0.56717   0.03846   0.41743   0.00000  Uiso   1.00
C63    C     0.57708   0.06633   0.46604   0.00000  Uiso   1.00
C64    C     0.62659   0.22359   0.27812   0.00000  Uiso   1.00
C65    C     0.65834   0.13003   0.22981   0.00000  Uiso   1.00
C66    C     0.70994   0.19977   0.19262   0.00000  Uiso   1.00
C67    C     0.52748   0.31555   0.32861   0.00000  Uiso   1.00
C68    C     0.47592   0.29931   0.32273   0.00000  Uiso   1.00
C69    C     0.44410   0.44648   0.32802   0.00000  Uiso   1.00
H70    H     0.61905   0.58433   0.35263   0.00000  Uiso   1.00
H71    H     0.62087   0.48158   0.44771   0.00000  Uiso   1.00
H72    H     0.71202   0.57314   0.26012   0.00000  Uiso   1.00
H73    H     0.52964   0.74239   0.35303   0.00000  Uiso   1.00
H74    H     0.61449   0.29812   0.54836   0.00000  Uiso   1.00
H75    H     0.80667   0.49120   0.15281   0.00000  Uiso   1.00
H76    H     0.42207   0.84811   0.34872   0.00000  Uiso   1.00
H77    H     0.55413   0.04864   0.31600   0.00000  Uiso   1.00
H78    H     0.55238   0.91648   0.40907   0.00000  Uiso   1.00
H79    H     0.64354   0.00805   0.22148   0.00000  Uiso   1.00
H80    H     0.46115   0.17730   0.31439   0.00000  Uiso   1.00
H81    H     0.55890   0.83946   0.51700   0.00000  Uiso   1.00
H82    H     0.75108   0.03255   0.12145   0.00000  Uiso   1.00
H83    H     0.36649   0.38945   0.31736   0.00000  Uiso   1.00
O84    O     0.58673   0.99150   0.59456   0.00000  Uiso   1.00
O85    O     0.83887   0.24484   0.07561   0.00000  Uiso   1.00
O86    O     0.33428   0.71309   0.33264   0.00000  Uiso   1.00
N87    N     0.60163   0.20832   0.52822   0.00000  Uiso   1.00
N88    N     0.78132   0.38883   0.15840   0.00000  Uiso   1.00
N89    N     0.42176   0.72251   0.34154   0.00000  Uiso   1.00
N90    N     0.57172   0.96152   0.51134   0.00000  Uiso   1.00
N91    N     0.75141   0.14203   0.14153   0.00000  Uiso   1.00
N92    N     0.39185   0.47572   0.32467   0.00000  Uiso   1.00
C93    C     0.89582   0.96160   0.15576   0.00000  Uiso   1.00
C94    C     0.90384   0.83150   0.10918   0.00000  Uiso   1.00
C95    C     0.89392   0.85957   0.06061   0.00000  Uiso   1.00
C96    C     0.90378   0.72425   0.02316   0.00000  Uiso   1.00
C97    C     0.91330   0.54618   0.94920   0.00000  Uiso   1.00
C98    C     0.85431   0.88123   0.21110   0.00000  Uiso   1.00
C99    C     0.80275   0.95114   0.24823   0.00000  Uiso   1.00
C100   C     0.77092   0.85769   0.29658   0.00000  Uiso   1.00
C101   C     0.70357   0.75690   0.38087   0.00000  Uiso   1.00
C102   C     0.95341   0.97319   0.16061   0.00000  Uiso   1.00
C103   C     0.98516   0.12042   0.15532   0.00000  Uiso   1.00
C104   C     0.03677   0.10440   0.16117   0.00000  Uiso   1.00
C105   C     0.12327   0.14639   0.16709   0.00000  Uiso   1.00
C106   C     0.93100   0.67137   0.17561   0.00000  Uiso   1.00
C107   C     0.92295   0.67385   0.11996   0.00000  Uiso   1.00
C108   C     0.93283   0.53846   0.08257   0.00000  Uiso   1.00
C109   C     0.92292   0.56633   0.03396   0.00000  Uiso   1.00
C110   C     0.87341   0.72359   0.22188   0.00000  Uiso   1.00
C111   C     0.84166   0.63003   0.27019   0.00000  Uiso   1.00
C112   C     0.79006   0.69977   0.30738   0.00000  Uiso   1.00
C113   C     0.97252   0.81555   0.17139   0.00000  Uiso   1.00
C114   C     0.02408   0.79931   0.17727   0.00000  Uiso   1.00
C115   C     0.05590   0.94648   0.17198   0.00000  Uiso   1.00
H116   H     0.88095   0.08433   0.14737   0.00000  Uiso   1.00
H117   H     0.87913   0.98158   0.05229   0.00000  Uiso   1.00
H118   H     0.78798   0.07314   0.23988   0.00000  Uiso   1.00
H119   H     0.97036   0.24239   0.14697   0.00000  Uiso   1.00
H120   H     0.88551   0.79812   0.95164   0.00000  Uiso   1.00
H121   H     0.69333   0.99120   0.34719   0.00000  Uiso   1.00
H122   H     0.07793   0.34811   0.15128   0.00000  Uiso   1.00
H123   H     0.94587   0.54864   0.18400   0.00000  Uiso   1.00
H124   H     0.94762   0.41648   0.09093   0.00000  Uiso   1.00
H125   H     0.85646   0.50805   0.27852   0.00000  Uiso   1.00
H126   H     0.03885   0.67730   0.18561   0.00000  Uiso   1.00
H127   H     0.94110   0.33946   0.98300   0.00000  Uiso   1.00
H128   H     0.74892   0.53255   0.37855   0.00000  Uiso   1.00
H129   H     0.13351   0.88945   0.18264   0.00000  Uiso   1.00
O130   O     0.91327   0.49150   0.90544   0.00000  Uiso   1.00
O131   O     0.66113   0.74484   0.42439   0.00000  Uiso   1.00
O132   O     0.16572   0.21309   0.16736   0.00000  Uiso   1.00
N133   N     0.89837   0.70832   0.97178   0.00000  Uiso   1.00
N134   N     0.71868   0.88883   0.34160   0.00000  Uiso   1.00
N135   N     0.07824   0.22251   0.15846   0.00000  Uiso   1.00
N136   N     0.92828   0.46152   0.98866   0.00000  Uiso   1.00
N137   N     0.74859   0.64203   0.35847   0.00000  Uiso   1.00
N138   N     0.10815   0.97572   0.17533   0.00000  Uiso   1.00
C139   C     0.39582   0.46160   0.15576   0.00000  Uiso   1.00
C140   C     0.40384   0.33150   0.10918   0.00000  Uiso   1.00
C141   C     0.39392   0.35957   0.06061   0.00000  Uiso   1.00
C142   C     0.40378   0.22425   0.02316   0.00000  Uiso   1.00
C143   C     0.41330   0.04618   0.94920   0.00000  Uiso   1.00
C144   C     0.35431   0.38123   0.21110   0.00000  Uiso   1.00
C145   C     0.30275   0.45114   0.24823   0.00000  Uiso   1.00
C146   C     0.27092   0.35769   0.29658   0.00000  Uiso   1.00
C147   C     0.20357   0.25690   0.38087   0.00000  Uiso   1.00
C148   C     0.45341   0.47319   0.16061   0.00000  Uiso   1.00
C149   C     0.48516   0.62042   0.15532   0.00000  Uiso   1.00
C150   C     0.53677   0.60440   0.16117   0.00000  Uiso   1.00
C151   C     0.62327   0.64639   0.16709   0.00000  Uiso   1.00
C152   C     0.43100   0.17137   0.17561   0.00000  Uiso   1.00
C153   C     0.42295   0.17385   0.11996   0.00000  Uiso   1.00
C154   C     0.43283   0.03846   0.08257   0.00000  Uiso   1.00
C155   C     0.42292   0.06633   0.03396   0.00000  Uiso   1.00
C156   C     0.37341   0.22359   0.22188   0.00000  Uiso   1.00
C157   C     0.34166   0.13003   0.27019   0.00000  Uiso   1.00
C158   C     0.29006   0.19977   0.30738   0.00000  Uiso   1.00
C159   C     0.47252   0.31555   0.17139   0.00000  Uiso   1.00
C160   C     0.52408   0.29931   0.17727   0.00000  Uiso   1.00
C161   C     0.55590   0.44648   0.17198   0.00000  Uiso   1.00
H162   H     0.38095   0.58433   0.14737   0.00000  Uiso   1.00
H163   H     0.37913   0.48158   0.05229   0.00000  Uiso   1.00
H164   H     0.28798   0.57314   0.23988   0.00000  Uiso   1.00
H165   H     0.47036   0.74239   0.14697   0.00000  Uiso   1.00
H166   H     0.38551   0.29812   0.95164   0.00000  Uiso   1.00
H167   H     0.19333   0.49120   0.34719   0.00000  Uiso   1.00
H168   H     0.57793   0.84811   0.15128   0.00000  Uiso   1.00
H169   H     0.44587   0.04864   0.18400   0.00000  Uiso   1.00
H170   H     0.44762   0.91648   0.09093   0.00000  Uiso   1.00
H171   H     0.35646   0.00805   0.27852   0.00000  Uiso   1.00
H172   H     0.53885   0.17730   0.18561   0.00000  Uiso   1.00
H173   H     0.44110   0.83946   0.98300   0.00000  Uiso   1.00
H174   H     0.24892   0.03255   0.37855   0.00000  Uiso   1.00
H175   H     0.63351   0.38945   0.18264   0.00000  Uiso   1.00
O176   O     0.41327   0.99150   0.90544   0.00000  Uiso   1.00
O177   O     0.16113   0.24484   0.42439   0.00000  Uiso   1.00
O178   O     0.66572   0.71309   0.16736   0.00000  Uiso   1.00
N179   N     0.39837   0.20832   0.97178   0.00000  Uiso   1.00
N180   N     0.21868   0.38883   0.34160   0.00000  Uiso   1.00
N181   N     0.57824   0.72251   0.15846   0.00000  Uiso   1.00
N182   N     0.42828   0.96152   0.98866   0.00000  Uiso   1.00
N183   N     0.24859   0.14203   0.35847   0.00000  Uiso   1.00
N184   N     0.60815   0.47572   0.17533   0.00000  Uiso   1.00
C185   C     0.89582   0.03840   0.65576   0.00000  Uiso   1.00
C186   C     0.90384   0.16850   0.60918   0.00000  Uiso   1.00
C187   C     0.89392   0.14043   0.56061   0.00000  Uiso   1.00
C188   C     0.90378   0.27575   0.52316   0.00000  Uiso   1.00
C189   C     0.91330   0.45382   0.44920   0.00000  Uiso   1.00
C190   C     0.85431   0.11877   0.71110   0.00000  Uiso   1.00
C191   C     0.80275   0.04886   0.74823   0.00000  Uiso   1.00
C192   C     0.77092   0.14231   0.79658   0.00000  Uiso   1.00
C193   C     0.70357   0.24310   0.88087   0.00000  Uiso   1.00
C194   C     0.95341   0.02681   0.66061   0.00000  Uiso   1.00
C195   C     0.98516   0.87958   0.65532   0.00000  Uiso   1.00
C196   C     0.03677   0.89560   0.66117   0.00000  Uiso   1.00
C197   C     0.12327   0.85361   0.66709   0.00000  Uiso   1.00
C198   C     0.93100   0.32863   0.67561   0.00000  Uiso   1.00
C199   C     0.92295   0.32615   0.61996   0.00000  Uiso   1.00
C200   C     0.93283   0.46154   0.58257   0.00000  Uiso   1.00
C201   C     0.92292   0.43367   0.53396   0.00000  Uiso   1.00
C202   C     0.87341   0.27641   0.72188   0.00000  Uiso   1.00
C203   C     0.84166   0.36997   0.77019   0.00000  Uiso   1.00
C204   C     0.79006   0.30023   0.80738   0.00000  Uiso   1.00
C205   C     0.97252   0.18445   0.67139   0.00000  Uiso   1.00
C206   C     0.02408   0.20069   0.67727   0.00000  Uiso   1.00
C207   C     0.05590   0.05352   0.67198   0.00000  Uiso   1.00
H208   H     0.88095   0.91567   0.64737   0.00000  Uiso   1.00
H209   H     0.87913   0.01842   0.55229   0.00000  Uiso   1.00
H210   H     0.78798   0.92686   0.73988   0.00000  Uiso   1.00
H211   H     0.97036   0.75761   0.64697   0.00000  Uiso   1.00
H212   H     0.88551   0.20188   0.45164   0.00000  Uiso   1.00
H213   H     0.69333   0.00880   0.84719   0.00000  Uiso   1.00
H214   H     0.07793   0.65189   0.65128   0.00000  Uiso   1.00
H215   H     0.94587   0.45136   0.68400   0.00000  Uiso   1.00
H216   H     0.94762   0.58352   0.59093   0.00000  Uiso   1.00
H217   H     0.85646   0.49195   0.77852   0.00000  Uiso   1.00
H218   H     0.03885   0.32270   0.68561   0.00000  Uiso   1.00
H219   H     0.94110   0.66054   0.48300   0.00000  Uiso   1.00
H220   H     0.74892   0.46745   0.87855   0.00000  Uiso   1.00
H221   H     0.13351   0.11055   0.68264   0.00000  Uiso   1.00
O222   O     0.91327   0.50850   0.40544   0.00000  Uiso   1.00
O223   O     0.66113   0.25516   0.92439   0.00000  Uiso   1.00
O224   O     0.16572   0.78691   0.66736   0.00000  Uiso   1.00
N225   N     0.89837   0.29168   0.47178   0.00000  Uiso   1.00
N226   N     0.71868   0.11117   0.84160   0.00000  Uiso   1.00
N227   N     0.07824   0.77749   0.65846   0.00000  Uiso   1.00
N228   N     0.92828   0.53848   0.48866   0.00000  Uiso   1.00
N229   N     0.74859   0.35797   0.85847   0.00000  Uiso   1.00
N230   N     0.10815   0.02428   0.67533   0.00000  Uiso   1.00
C231   C     0.39582   0.53840   0.65576   0.00000  Uiso   1.00
C232   C     0.40384   0.66850   0.60918   0.00000  Uiso   1.00
C233   C     0.39392   0.64043   0.56061   0.00000  Uiso   1.00
C234   C     0.40378   0.77575   0.52316   0.00000  Uiso   1.00
C235   C     0.41330   0.95382   0.44920   0.00000  Uiso   1.00
C236   C     0.35431   0.61877   0.71110   0.00000  Uiso   1.00
C237   C     0.30275   0.54886   0.74823   0.00000  Uiso   1.00
C238   C     0.27092   0.64231   0.79658   0.00000  Uiso   1.00
C239   C     0.20357   0.74310   0.88087   0.00000  Uiso   1.00
C240   C     0.45341   0.52681   0.66061   0.00000  Uiso   1.00
C241   C     0.48516   0.37958   0.65532   0.00000  Uiso   1.00
C242   C     0.53677   0.39560   0.66117   0.00000  Uiso   1.00
C243   C     0.62327   0.35361   0.66709   0.00000  Uiso   1.00
C244   C     0.43100   0.82863   0.67561   0.00000  Uiso   1.00
C245   C     0.42295   0.82615   0.61996   0.00000  Uiso   1.00
C246   C     0.43283   0.96154   0.58257   0.00000  Uiso   1.00
C247   C     0.42292   0.93367   0.53396   0.00000  Uiso   1.00
C248   C     0.37341   0.77641   0.72188   0.00000  Uiso   1.00
C249   C     0.34166   0.86997   0.77019   0.00000  Uiso   1.00
C250   C     0.29006   0.80023   0.80738   0.00000  Uiso   1.00
C251   C     0.47252   0.68445   0.67139   0.00000  Uiso   1.00
C252   C     0.52408   0.70069   0.67727   0.00000  Uiso   1.00
C253   C     0.55590   0.55352   0.67198   0.00000  Uiso   1.00
H254   H     0.38095   0.41567   0.64737   0.00000  Uiso   1.00
H255   H     0.37913   0.51842   0.55229   0.00000  Uiso   1.00
H256   H     0.28798   0.42686   0.73988   0.00000  Uiso   1.00
H257   H     0.47036   0.25761   0.64697   0.00000  Uiso   1.00
H258   H     0.38551   0.70188   0.45164   0.00000  Uiso   1.00
H259   H     0.19333   0.50880   0.84719   0.00000  Uiso   1.00
H260   H     0.57793   0.15189   0.65128   0.00000  Uiso   1.00
H261   H     0.44587   0.95136   0.68400   0.00000  Uiso   1.00
H262   H     0.44762   0.08352   0.59093   0.00000  Uiso   1.00
H263   H     0.35646   0.99195   0.77852   0.00000  Uiso   1.00
H264   H     0.53885   0.82270   0.68561   0.00000  Uiso   1.00
H265   H     0.44110   0.16054   0.48300   0.00000  Uiso   1.00
H266   H     0.24892   0.96745   0.87855   0.00000  Uiso   1.00
H267   H     0.63351   0.61055   0.68264   0.00000  Uiso   1.00
O268   O     0.41327   0.00850   0.40544   0.00000  Uiso   1.00
O269   O     0.16113   0.75516   0.92439   0.00000  Uiso   1.00
O270   O     0.66572   0.28691   0.66736   0.00000  Uiso   1.00
N271   N     0.39837   0.79168   0.47178   0.00000  Uiso   1.00
N272   N     0.21868   0.61117   0.84160   0.00000  Uiso   1.00
N273   N     0.57824   0.27749   0.65846   0.00000  Uiso   1.00
N274   N     0.42828   0.03848   0.48866   0.00000  Uiso   1.00
N275   N     0.24859   0.85797   0.85847   0.00000  Uiso   1.00
N276   N     0.60815   0.52428   0.67533   0.00000  Uiso   1.00
C277   C     0.10418   0.03840   0.84424   0.00000  Uiso   1.00
C278   C     0.09616   0.16850   0.89082   0.00000  Uiso   1.00
C279   C     0.10608   0.14043   0.93939   0.00000  Uiso   1.00
C280   C     0.09622   0.27575   0.97684   0.00000  Uiso   1.00
C281   C     0.08670   0.45382   0.05080   0.00000  Uiso   1.00
C282   C     0.14569   0.11877   0.78890   0.00000  Uiso   1.00
C283   C     0.19725   0.04886   0.75177   0.00000  Uiso   1.00
C284   C     0.22908   0.14231   0.70342   0.00000  Uiso   1.00
C285   C     0.29643   0.24310   0.61913   0.00000  Uiso   1.00
C286   C     0.04659   0.02681   0.83939   0.00000  Uiso   1.00
C287   C     0.01484   0.87958   0.84468   0.00000  Uiso   1.00
C288   C     0.96323   0.89560   0.83883   0.00000  Uiso   1.00
C289   C     0.87673   0.85361   0.83291   0.00000  Uiso   1.00
C290   C     0.06900   0.32863   0.82439   0.00000  Uiso   1.00
C291   C     0.07705   0.32615   0.88004   0.00000  Uiso   1.00
C292   C     0.06717   0.46154   0.91743   0.00000  Uiso   1.00
C293   C     0.07708   0.43367   0.96604   0.00000  Uiso   1.00
C294   C     0.12659   0.27641   0.77812   0.00000  Uiso   1.00
C295   C     0.15834   0.36997   0.72981   0.00000  Uiso   1.00
C296   C     0.20994   0.30023   0.69262   0.00000  Uiso   1.00
C297   C     0.02748   0.18445   0.82861   0.00000  Uiso   1.00
C298   C     0.97592   0.20069   0.82273   0.00000  Uiso   1.00
C299   C     0.94410   0.05352   0.82802   0.00000  Uiso   1.00
H300   H     0.11905   0.91567   0.85263   0.00000  Uiso   1.00
H301   H     0.12087   0.01842   0.94771   0.00000  Uiso   1.00
H302   H     0.21202   0.92686   0.76012   0.00000  Uiso   1.00
H303   H     0.02964   0.75761   0.85303   0.00000  Uiso   1.00
H304   H     0.11449   0.20188   0.04836   0.00000  Uiso   1.00
H305   H     0.30667   0.00880   0.65281   0.00000  Uiso   1.00
H306   H     0.92207   0.65189   0.84872   0.00000  Uiso   1.00
H307   H     0.05413   0.45136   0.81600   0.00000  Uiso   1.00
H308   H     0.05238   0.58352   0.90907   0.00000  Uiso   1.00
H309   H     0.14354   0.49195   0.72148   0.00000  Uiso   1.00
H310   H     0.96115   0.32270   0.81439   0.00000  Uiso   1.00
H311   H     0.05890   0.66054   0.01700   0.00000  Uiso   1.00
H312   H     0.25108   0.46745   0.62145   0.00000  Uiso   1.00
H313   H     0.86649   0.11055   0.81736   0.00000  Uiso   1.00
O314   O     0.08673   0.50850   0.09456   0.00000  Uiso   1.00
O315   O     0.33887   0.25516   0.57561   0.00000  Uiso   1.00
O316   O     0.83428   0.78691   0.83264   0.00000  Uiso   1.00
N317   N     0.10163   0.29168   0.02822   0.00000  Uiso   1.00
N318   N     0.28132   0.11117   0.65840   0.00000  Uiso   1.00
N319   N     0.92176   0.77749   0.84154   0.00000  Uiso   1.00
N320   N     0.07172   0.53848   0.01134   0.00000  Uiso   1.00
N321   N     0.25141   0.35797   0.64153   0.00000  Uiso   1.00
N322   N     0.89185   0.02428   0.82467   0.00000  Uiso   1.00
C323   C     0.60418   0.53840   0.84424   0.00000  Uiso   1.00
C324   C     0.59616   0.66850   0.89082   0.00000  Uiso   1.00
C325   C     0.60608   0.64043   0.93939   0.00000  Uiso   1.00
C326   C     0.59622   0.77575   0.97684   0.00000  Uiso   1.00
C327   C     0.58670   0.95382   0.05080   0.00000  Uiso   1.00
C328   C     0.64569   0.61877   0.78890   0.00000  Uiso   1.00
C329   C     0.69725   0.54886   0.75177   0.00000  Uiso   1.00
C330   C     0.72908   0.64231   0.70342   0.00000  Uiso   1.00
C331   C     0.79643   0.74310   0.61913   0.00000  Uiso   1.00
C332   C     0.54659   0.52681   0.83939   0.00000  Uiso   1.00
C333   C     0.51484   0.37958   0.84468   0.00000  Uiso   1.00
C334   C     0.46323   0.39560   0.83883   0.00000  Uiso   1.00
C335   C     0.37673   0.35361   0.83291   0.00000  Uiso   1.00
C336   C     0.56900   0.82863   0.82439   0.00000  Uiso   1.00
C337   C     0.57705   0.82615   0.88004   0.00000  Uiso   1.00
C338   C     0.56717   0.96154   0.91743   0.00000  Uiso   1.00
C339   C     0.57708   0.93367   0.96604   0.00000  Uiso   1.00
C340   C     0.62659   0.77641   0.77812   0.00000  Uiso   1.00
C341   C     0.65834   0.86997   0.72981   0.00000  Uiso   1.00
C342   C     0.70994   0.80023   0.69262   0.00000  Uiso   1.00
C343   C     0.52748   0.68445   0.82861   0.00000  Uiso   1.00
C344   C     0.47592   0.70069   0.82273   0.00000  Uiso   1.00
C345   C     0.44410   0.55352   0.82802   0.00000  Uiso   1.00
H346   H     0.61905   0.41567   0.85263   0.00000  Uiso   1.00
H347   H     0.62087   0.51842   0.94771   0.00000  Uiso   1.00
H348   H     0.71202   0.42686   0.76012   0.00000  Uiso   1.00
H349   H     0.52964   0.25761   0.85303   0.00000  Uiso   1.00
H350   H     0.61449   0.70188   0.04836   0.00000  Uiso   1.00
H351   H     0.80667   0.50880   0.65281   0.00000  Uiso   1.00
H352   H     0.42207   0.15189   0.84872   0.00000  Uiso   1.00
H353   H     0.55413   0.95136   0.81600   0.00000  Uiso   1.00
H354   H     0.55238   0.08352   0.90907   0.00000  Uiso   1.00
H355   H     0.64354   0.99195   0.72148   0.00000  Uiso   1.00
H356   H     0.46115   0.82270   0.81439   0.00000  Uiso   1.00
H357   H     0.55890   0.16054   0.01700   0.00000  Uiso   1.00
H358   H     0.75108   0.96745   0.62145   0.00000  Uiso   1.00
H359   H     0.36649   0.61055   0.81736   0.00000  Uiso   1.00
O360   O     0.58673   0.00850   0.09456   0.00000  Uiso   1.00
O361   O     0.83887   0.75516   0.57561   0.00000  Uiso   1.00
O362   O     0.33428   0.28691   0.83264   0.00000  Uiso   1.00
N363   N     0.60163   0.79168   0.02822   0.00000  Uiso   1.00
N364   N     0.78132   0.61117   0.65840   0.00000  Uiso   1.00
N365   N     0.42176   0.27749   0.84154   0.00000  Uiso   1.00
N366   N     0.57172   0.03848   0.01134   0.00000  Uiso   1.00
N367   N     0.75141   0.85797   0.64153   0.00000  Uiso   1.00
N368   N     0.39185   0.52428   0.82467   0.00000  Uiso   1.00
