data_job_06609
_audit_creation_date              2018-12-19
_audit_creation_method            'Materials Studio'
_symmetry_space_group_name_H-M    'P1'
_symmetry_Int_Tables_number       1
_symmetry_cell_setting            triclinic
loop_
_symmetry_equiv_pos_as_xyz
  x,y,z
_cell_length_a                    20.8848
_cell_length_b                    23.0117
_cell_length_c                    23.6777
_cell_angle_alpha                 116.4062
_cell_angle_beta                  88.0227
_cell_angle_gamma                 64.1888
loop_
_atom_site_label
_atom_site_type_symbol
_atom_site_fract_x
_atom_site_fract_y
_atom_site_fract_z
_atom_site_U_iso_or_equiv
_atom_site_adp_type
_atom_site_occupancy
C1     C     0.12744   0.56164   0.07133   0.00000  Uiso   1.00
C2     C     0.14659   0.62389   0.10018   0.00000  Uiso   1.00
C3     C     0.19471   0.62818   0.13881   0.00000  Uiso   1.00
C4     C     0.20482   0.68959   0.16042   0.00000  Uiso   1.00
C5     C     0.24011   0.77788   0.20775   0.00000  Uiso   1.00
C6     C     0.04327   0.60047   0.09573   0.00000  Uiso   1.00
C7     C     0.00453   0.58506   0.13060   0.00000  Uiso   1.00
C8     C     0.92766   0.62676   0.14845   0.00000  Uiso   1.00
C9     C     0.80254   0.67864   0.18883   0.00000  Uiso   1.00
C10    C     0.14611   0.53009   0.99731   0.00000  Uiso   1.00
C11    C     0.19382   0.45551   0.94943   0.00000  Uiso   1.00
C12    C     0.20352   0.43795   0.88441   0.00000  Uiso   1.00
C13    C     0.23809   0.38058   0.77198   0.00000  Uiso   1.00
C14    C     0.05980   0.66308   0.04102   0.00000  Uiso   1.00
C15    C     0.10985   0.67898   0.08372   0.00000  Uiso   1.00
C16    C     0.11988   0.74041   0.10528   0.00000  Uiso   1.00
C17    C     0.16802   0.74479   0.14392   0.00000  Uiso   1.00
C18    C     0.00653   0.65556   0.07927   0.00000  Uiso   1.00
C19    C     0.92970   0.69729   0.09707   0.00000  Uiso   1.00
C20    C     0.89085   0.68195   0.13196   0.00000  Uiso   1.00
C21    C     0.10937   0.58519   0.98085   0.00000  Uiso   1.00
C22    C     0.11900   0.56774   0.91590   0.00000  Uiso   1.00
C23    C     0.16672   0.49315   0.86792   0.00000  Uiso   1.00
H24    H     0.15604   0.51875   0.08415   0.00000  Uiso   1.00
H25    H     0.22313   0.58553   0.15154   0.00000  Uiso   1.00
H26    H     0.03297   0.54241   0.14333   0.00000  Uiso   1.00
H27    H     0.22224   0.41289   0.96218   0.00000  Uiso   1.00
H28    H     0.28129   0.68388   0.21902   0.00000  Uiso   1.00
H29    H     0.88034   0.59295   0.20168   0.00000  Uiso   1.00
H30    H     0.27945   0.31982   0.81971   0.00000  Uiso   1.00
H31    H     0.03120   0.70598   0.02821   0.00000  Uiso   1.00
H32    H     0.09145   0.78304   0.09253   0.00000  Uiso   1.00
H33    H     0.90129   0.73992   0.08432   0.00000  Uiso   1.00
H34    H     0.09056   0.61039   0.90318   0.00000  Uiso   1.00
H35    H     0.17441   0.84419   0.17113   0.00000  Uiso   1.00
H36    H     0.77345   0.75325   0.15379   0.00000  Uiso   1.00
H37    H     0.17257   0.48012   0.77181   0.00000  Uiso   1.00
O38    O     0.26971   0.81136   0.23842   0.00000  Uiso   1.00
O39    O     0.74368   0.69205   0.21566   0.00000  Uiso   1.00
O40    O     0.26731   0.33371   0.71452   0.00000  Uiso   1.00
N41    N     0.24788   0.71103   0.19891   0.00000  Uiso   1.00
N42    N     0.87301   0.62602   0.18271   0.00000  Uiso   1.00
N43    N     0.24613   0.37066   0.82559   0.00000  Uiso   1.00
N44    N     0.19037   0.79729   0.17314   0.00000  Uiso   1.00
N45    N     0.81550   0.71228   0.15694   0.00000  Uiso   1.00
N46    N     0.18862   0.45692   0.79982   0.00000  Uiso   1.00
C47    C     0.44667   0.16630   0.06789   0.00000  Uiso   1.00
C48    C     0.42482   0.24892   0.10397   0.00000  Uiso   1.00
C49    C     0.35287   0.30948   0.13308   0.00000  Uiso   1.00
C50    C     0.34452   0.38070   0.16368   0.00000  Uiso   1.00
C51    C     0.30124   0.50743   0.21947   0.00000  Uiso   1.00
C52    C     0.49520   0.13148   0.99935   0.00000  Uiso   1.00
C53    C     0.48242   0.09330   0.94049   0.00000  Uiso   1.00
C54    C     0.53332   0.06565   0.88302   0.00000  Uiso   1.00
C55    C     0.59934   0.01001   0.77638   0.00000  Uiso   1.00
C56    C     0.49752   0.13138   0.10211   0.00000  Uiso   1.00
C57    C     0.48670   0.09309   0.12963   0.00000  Uiso   1.00
C58    C     0.53956   0.06534   0.15866   0.00000  Uiso   1.00
C59    C     0.60917   0.00954   0.21156   0.00000  Uiso   1.00
C60    C     0.55979   0.18509   0.07048   0.00000  Uiso   1.00
C61    C     0.48627   0.25912   0.10538   0.00000  Uiso   1.00
C62    C     0.47802   0.33027   0.13595   0.00000  Uiso   1.00
C63    C     0.40607   0.39093   0.16510   0.00000  Uiso   1.00
C64    C     0.55664   0.14168   0.00076   0.00000  Uiso   1.00
C65    C     0.60757   0.11408   0.94336   0.00000  Uiso   1.00
C66    C     0.59488   0.07587   0.88443   0.00000  Uiso   1.00
C67    C     0.55896   0.14158   0.10352   0.00000  Uiso   1.00
C68    C     0.61185   0.11388   0.13250   0.00000  Uiso   1.00
C69    C     0.60111   0.07556   0.16007   0.00000  Uiso   1.00
H70    H     0.39884   0.15835   0.06679   0.00000  Uiso   1.00
H71    H     0.30534   0.30156   0.13197   0.00000  Uiso   1.00
H72    H     0.43488   0.08540   0.93942   0.00000  Uiso   1.00
H73    H     0.43915   0.08520   0.12853   0.00000  Uiso   1.00
H74    H     0.22876   0.46483   0.20485   0.00000  Uiso   1.00
H75    H     0.50192   0.00903   0.79883   0.00000  Uiso   1.00
H76    H     0.51093   0.00860   0.19761   0.00000  Uiso   1.00
H77    H     0.60763   0.19303   0.07157   0.00000  Uiso   1.00
H78    H     0.52558   0.33815   0.13703   0.00000  Uiso   1.00
H79    H     0.65512   0.12199   0.94447   0.00000  Uiso   1.00
H80    H     0.65939   0.12179   0.13358   0.00000  Uiso   1.00
H81    H     0.40752   0.49453   0.20895   0.00000  Uiso   1.00
H82    H     0.68067   0.03872   0.80293   0.00000  Uiso   1.00
H83    H     0.68968   0.03830   0.20171   0.00000  Uiso   1.00
O84    O     0.26040   0.57452   0.24985   0.00000  Uiso   1.00
O85    O     0.61877   0.97651   0.71717   0.00000  Uiso   1.00
O86    O     0.63059   0.97595   0.24037   0.00000  Uiso   1.00
N87    N     0.28210   0.45191   0.19684   0.00000  Uiso   1.00
N88    N     0.53747   0.02577   0.81724   0.00000  Uiso   1.00
N89    N     0.54590   0.02535   0.19005   0.00000  Uiso   1.00
N90    N     0.37828   0.46789   0.19905   0.00000  Uiso   1.00
N91    N     0.63366   0.04175   0.81944   0.00000  Uiso   1.00
N92    N     0.64209   0.04133   0.19226   0.00000  Uiso   1.00
C93    C     0.00775   0.68937   0.52447   0.00000  Uiso   1.00
C94    C     0.03167   0.74579   0.56385   0.00000  Uiso   1.00
C95    C     0.05635   0.78034   0.54062   0.00000  Uiso   1.00
C96    C     0.07565   0.83025   0.58434   0.00000  Uiso   1.00
C97    C     0.11362   0.91559   0.63566   0.00000  Uiso   1.00
C98    C     0.05599   0.61926   0.52775   0.00000  Uiso   1.00
C99    C     0.10110   0.54741   0.47416   0.00000  Uiso   1.00
C100   C     0.14086   0.49081   0.48749   0.00000  Uiso   1.00
C101   C     0.21655   0.37969   0.48276   0.00000  Uiso   1.00
C102   C     0.92901   0.72169   0.56331   0.00000  Uiso   1.00
C103   C     0.86736   0.73595   0.53962   0.00000  Uiso   1.00
C104   C     0.80021   0.76558   0.58288   0.00000  Uiso   1.00
C105   C     0.67874   0.81350   0.63336   0.00000  Uiso   1.00
C106   C     0.99815   0.71658   0.64342   0.00000  Uiso   1.00
C107   C     0.02646   0.76057   0.62846   0.00000  Uiso   1.00
C108   C     0.04572   0.81045   0.67223   0.00000  Uiso   1.00
C109   C     0.07042   0.84506   0.64907   0.00000  Uiso   1.00
C110   C     0.05078   0.63404   0.59236   0.00000  Uiso   1.00
C111   C     0.09048   0.57753   0.60577   0.00000  Uiso   1.00
C112   C     0.13564   0.50561   0.55222   0.00000  Uiso   1.00
C113   C     0.92379   0.73648   0.62792   0.00000  Uiso   1.00
C114   C     0.85673   0.76607   0.67122   0.00000  Uiso   1.00
C115   C     0.79499   0.78038   0.64760   0.00000  Uiso   1.00
H116   H     0.01181   0.67785   0.47416   0.00000  Uiso   1.00
H117   H     0.06038   0.76887   0.49062   0.00000  Uiso   1.00
H118   H     0.10512   0.53599   0.42417   0.00000  Uiso   1.00
H119   H     0.87141   0.72451   0.48962   0.00000  Uiso   1.00
H120   H     0.11195   0.87629   0.53735   0.00000  Uiso   1.00
H121   H     0.20627   0.38523   0.39724   0.00000  Uiso   1.00
H122   H     0.71345   0.78276   0.53524   0.00000  Uiso   1.00
H123   H     0.99408   0.72809   0.69372   0.00000  Uiso   1.00
H124   H     0.04168   0.82188   0.72223   0.00000  Uiso   1.00
H125   H     0.08642   0.58899   0.65577   0.00000  Uiso   1.00
H126   H     0.85272   0.77751   0.72122   0.00000  Uiso   1.00
H127   H     0.09678   0.91931   0.72533   0.00000  Uiso   1.00
H128   H     0.19110   0.42824   0.58521   0.00000  Uiso   1.00
H129   H     0.69828   0.82577   0.72322   0.00000  Uiso   1.00
O130   O     0.13602   0.95857   0.64612   0.00000  Uiso   1.00
O131   O     0.25975   0.31431   0.46230   0.00000  Uiso   1.00
O132   O     0.61318   0.83586   0.64335   0.00000  Uiso   1.00
N133   N     0.10184   0.87356   0.57768   0.00000  Uiso   1.00
N134   N     0.19003   0.41444   0.44669   0.00000  Uiso   1.00
N135   N     0.72929   0.78608   0.57570   0.00000  Uiso   1.00
N136   N     0.09367   0.89670   0.67883   0.00000  Uiso   1.00
N137   N     0.18186   0.43759   0.54784   0.00000  Uiso   1.00
N138   N     0.72112   0.80923   0.67685   0.00000  Uiso   1.00
C139   C     0.97105   0.22728   0.55541   0.00000  Uiso   1.00
C140   C     0.01810   0.26294   0.58234   0.00000  Uiso   1.00
C141   C     0.99813   0.33699   0.60434   0.00000  Uiso   1.00
C142   C     0.04889   0.35876   0.62714   0.00000  Uiso   1.00
C143   C     0.11154   0.42183   0.66887   0.00000  Uiso   1.00
C144   C     0.96256   0.19541   0.59770   0.00000  Uiso   1.00
C145   C     0.89589   0.21268   0.63259   0.00000  Uiso   1.00
C146   C     0.89990   0.17759   0.66831   0.00000  Uiso   1.00
C147   C     0.87632   0.13578   0.73384   0.00000  Uiso   1.00
C148   C     0.01861   0.15973   0.48715   0.00000  Uiso   1.00
C149   C     0.99906   0.14698   0.42911   0.00000  Uiso   1.00
C150   C     0.05026   0.08183   0.37176   0.00000  Uiso   1.00
C151   C     0.11372   0.98462   0.26565   0.00000  Uiso   1.00
C152   C     0.09672   0.13424   0.55679   0.00000  Uiso   1.00
C153   C     0.08636   0.21240   0.58309   0.00000  Uiso   1.00
C154   C     0.13716   0.23406   0.60586   0.00000  Uiso   1.00
C155   C     0.11727   0.30813   0.62789   0.00000  Uiso   1.00
C156   C     0.03081   0.14488   0.59844   0.00000  Uiso   1.00
C157   C     0.03492   0.10975   0.63411   0.00000  Uiso   1.00
C158   C     0.96828   0.12697   0.66906   0.00000  Uiso   1.00
C159   C     0.08687   0.10919   0.48790   0.00000  Uiso   1.00
C160   C     0.13810   0.04405   0.43063   0.00000  Uiso   1.00
C161   C     0.11864   0.03121   0.37250   0.00000  Uiso   1.00
H162   H     0.91791   0.26662   0.55484   0.00000  Uiso   1.00
H163   H     0.94530   0.37609   0.60376   0.00000  Uiso   1.00
H164   H     0.84307   0.25179   0.63200   0.00000  Uiso   1.00
H165   H     0.94624   0.18610   0.42855   0.00000  Uiso   1.00
H166   H     0.00575   0.47517   0.65835   0.00000  Uiso   1.00
H167   H     0.79021   0.21306   0.71789   0.00000  Uiso   1.00
H168   H     0.00775   0.07454   0.28886   0.00000  Uiso   1.00
H169   H     0.14986   0.09489   0.55737   0.00000  Uiso   1.00
H170   H     0.18998   0.19494   0.60643   0.00000  Uiso   1.00
H171   H     0.08775   0.07064   0.63467   0.00000  Uiso   1.00
H172   H     0.19092   0.00495   0.43122   0.00000  Uiso   1.00
H173   H     0.20434   0.32815   0.66052   0.00000  Uiso   1.00
H174   H     0.98880   0.06604   0.72006   0.00000  Uiso   1.00
H175   H     0.20634   0.92752   0.29103   0.00000  Uiso   1.00
O176   O     0.12724   0.47058   0.69169   0.00000  Uiso   1.00
O177   O     0.84446   0.12669   0.76978   0.00000  Uiso   1.00
O178   O     0.12987   0.94496   0.20692   0.00000  Uiso   1.00
N179   N     0.04699   0.42684   0.65212   0.00000  Uiso   1.00
N180   N     0.84547   0.18179   0.70779   0.00000  Uiso   1.00
N181   N     0.04884   0.05228   0.30669   0.00000  Uiso   1.00
N182   N     0.15385   0.34772   0.65329   0.00000  Uiso   1.00
N183   N     0.95233   0.10268   0.70895   0.00000  Uiso   1.00
N184   N     0.15571   0.97316   0.30786   0.00000  Uiso   1.00
C185   C     0.54561   0.55296   0.57653   0.00000  Uiso   1.00
C186   C     0.60138   0.56602   0.61270   0.00000  Uiso   1.00
C187   C     0.64399   0.52396   0.63871   0.00000  Uiso   1.00
C188   C     0.69176   0.54489   0.66997   0.00000  Uiso   1.00
C189   C     0.77764   0.55589   0.72534   0.00000  Uiso   1.00
C190   C     0.56964   0.54279   0.50968   0.00000  Uiso   1.00
C191   C     0.58554   0.48121   0.44908   0.00000  Uiso   1.00
C192   C     0.60658   0.48259   0.39362   0.00000  Uiso   1.00
C193   C     0.64313   0.45755   0.28905   0.00000  Uiso   1.00
C194   C     0.47203   0.62679   0.61355   0.00000  Uiso   1.00
C195   C     0.40585   0.63583   0.64027   0.00000  Uiso   1.00
C196   C     0.34470   0.70794   0.67226   0.00000  Uiso   1.00
C197   C     0.22969   0.81332   0.72896   0.00000  Uiso   1.00
C198   C     0.55469   0.66492   0.58579   0.00000  Uiso   1.00
C199   C     0.60632   0.62683   0.61773   0.00000  Uiso   1.00
C200   C     0.65403   0.64783   0.64896   0.00000  Uiso   1.00
C201   C     0.69670   0.60581   0.67502   0.00000  Uiso   1.00
C202   C     0.57457   0.60360   0.51471   0.00000  Uiso   1.00
C203   C     0.59559   0.60508   0.45933   0.00000  Uiso   1.00
C204   C     0.61152   0.54351   0.39866   0.00000  Uiso   1.00
C205   C     0.47696   0.68761   0.61859   0.00000  Uiso   1.00
C206   C     0.41590   0.75971   0.65053   0.00000  Uiso   1.00
C207   C     0.34964   0.76886   0.67730   0.00000  Uiso   1.00
H208   H     0.54177   0.50561   0.57261   0.00000  Uiso   1.00
H209   H     0.64016   0.47690   0.63480   0.00000  Uiso   1.00
H210   H     0.58171   0.43416   0.44520   0.00000  Uiso   1.00
H211   H     0.40205   0.58876   0.63637   0.00000  Uiso   1.00
H212   H     0.75144   0.47186   0.70595   0.00000  Uiso   1.00
H213   H     0.62818   0.38175   0.30617   0.00000  Uiso   1.00
H214   H     0.24932   0.70776   0.70928   0.00000  Uiso   1.00
H215   H     0.55853   0.71227   0.58971   0.00000  Uiso   1.00
H216   H     0.65784   0.69490   0.65285   0.00000  Uiso   1.00
H217   H     0.59939   0.65215   0.46325   0.00000  Uiso   1.00
H218   H     0.41973   0.80675   0.65441   0.00000  Uiso   1.00
H219   H     0.76579   0.64880   0.72060   0.00000  Uiso   1.00
H220   H     0.64252   0.55868   0.32082   0.00000  Uiso   1.00
H221   H     0.26367   0.88469   0.72393   0.00000  Uiso   1.00
O222   O     0.82366   0.54515   0.75448   0.00000  Uiso   1.00
O223   O     0.66193   0.42694   0.22998   0.00000  Uiso   1.00
O224   O     0.16489   0.85465   0.75886   0.00000  Uiso   1.00
N225   N     0.74118   0.51590   0.70074   0.00000  Uiso   1.00
N226   N     0.62595   0.43164   0.32697   0.00000  Uiso   1.00
N227   N     0.27175   0.73643   0.70384   0.00000  Uiso   1.00
N228   N     0.74890   0.61110   0.70863   0.00000  Uiso   1.00
N229   N     0.63367   0.52685   0.33486   0.00000  Uiso   1.00
N230   N     0.27947   0.83164   0.71172   0.00000  Uiso   1.00
C231   C     0.53986   0.65812   0.01002   0.00000  Uiso   1.00
C232   C     0.57868   0.70285   0.03911   0.00000  Uiso   1.00
C233   C     0.63743   0.69787   0.00418   0.00000  Uiso   1.00
C234   C     0.66520   0.74352   0.03981   0.00000  Uiso   1.00
C235   C     0.73000   0.80556   0.07462   0.00000  Uiso   1.00
C236   C     0.45795   0.71594   0.02969   0.00000  Uiso   1.00
C237   C     0.41519   0.72195   0.98684   0.00000  Uiso   1.00
C238   C     0.34133   0.77861   0.01454   0.00000  Uiso   1.00
C239   C     0.21868   0.86093   0.03473   0.00000  Uiso   1.00
C240   C     0.54517   0.61722   0.04718   0.00000  Uiso   1.00
C241   C     0.57572   0.54022   0.01902   0.00000  Uiso   1.00
C242   C     0.57528   0.51377   0.06144   0.00000  Uiso   1.00
C243   C     0.58806   0.44281   0.10878   0.00000  Uiso   1.00
C244   C     0.48472   0.74804   0.13541   0.00000  Uiso   1.00
C245   C     0.54873   0.75169   0.10722   0.00000  Uiso   1.00
C246   C     0.57642   0.79735   0.14292   0.00000  Uiso   1.00
C247   C     0.63520   0.79244   0.10804   0.00000  Uiso   1.00
C248   C     0.42800   0.76477   0.09780   0.00000  Uiso   1.00
C249   C     0.35418   0.82143   0.12557   0.00000  Uiso   1.00
C250   C     0.31132   0.82753   0.08277   0.00000  Uiso   1.00
C251   C     0.51522   0.66605   0.11529   0.00000  Uiso   1.00
C252   C     0.51472   0.63971   0.15776   0.00000  Uiso   1.00
C253   C     0.54527   0.56270   0.12968   0.00000  Uiso   1.00
H254   H     0.56318   0.62010   0.95699   0.00000  Uiso   1.00
H255   H     0.66059   0.66007   0.95147   0.00000  Uiso   1.00
H256   H     0.43838   0.68414   0.93413   0.00000  Uiso   1.00
H257   H     0.59890   0.50245   0.96631   0.00000  Uiso   1.00
H258   H     0.75536   0.72594   0.97538   0.00000  Uiso   1.00
H259   H     0.28682   0.77668   0.93883   0.00000  Uiso   1.00
H260   H     0.62529   0.39354   0.00668   0.00000  Uiso   1.00
H261   H     0.46140   0.78607   0.18844   0.00000  Uiso   1.00
H262   H     0.55323   0.83514   0.19562   0.00000  Uiso   1.00
H263   H     0.33102   0.85921   0.17828   0.00000  Uiso   1.00
H264   H     0.49154   0.67752   0.21046   0.00000  Uiso   1.00
H265   H     0.66822   0.86804   0.17354   0.00000  Uiso   1.00
H266   H     0.19968   0.91877   0.13699   0.00000  Uiso   1.00
H267   H     0.53816   0.53564   0.20485   0.00000  Uiso   1.00
O268   O     0.77401   0.82630   0.07501   0.00000  Uiso   1.00
O269   O     0.15931   0.89285   0.02705   0.00000  Uiso   1.00
O270   O     0.60339   0.39019   0.11607   0.00000  Uiso   1.00
N271   N     0.72226   0.75264   0.02104   0.00000  Uiso   1.00
N272   N     0.28420   0.80008   0.98686   0.00000  Uiso   1.00
N273   N     0.60063   0.44188   0.05030   0.00000  Uiso   1.00
N274   N     0.67537   0.82910   0.12767   0.00000  Uiso   1.00
N275   N     0.23732   0.87654   0.09349   0.00000  Uiso   1.00
N276   N     0.55375   0.51834   0.15693   0.00000  Uiso   1.00
C277   C     0.84415   0.43448   0.93070   0.00000  Uiso   1.00
C278   C     0.79076   0.42438   0.89003   0.00000  Uiso   1.00
C279   C     0.75660   0.46585   0.86083   0.00000  Uiso   1.00
C280   C     0.70966   0.44797   0.82564   0.00000  Uiso   1.00
C281   C     0.62866   0.44098   0.76333   0.00000  Uiso   1.00
C282   C     0.91510   0.35812   0.89777   0.00000  Uiso   1.00
C283   C     0.98548   0.34389   0.87510   0.00000  Uiso   1.00
C284   C     0.04320   0.27024   0.84644   0.00000  Uiso   1.00
C285   C     0.15525   0.16040   0.79620   0.00000  Uiso   1.00
C286   C     0.81109   0.44863   0.99705   0.00000  Uiso   1.00
C287   C     0.79404   0.51049   0.05785   0.00000  Uiso   1.00
C288   C     0.76420   0.51302   0.11278   0.00000  Uiso   1.00
C289   C     0.71476   0.54370   0.21668   0.00000  Uiso   1.00
C290   C     0.82152   0.32897   0.92013   0.00000  Uiso   1.00
C291   C     0.77848   0.36707   0.88428   0.00000  Uiso   1.00
C292   C     0.73157   0.34912   0.84913   0.00000  Uiso   1.00
C293   C     0.69734   0.39056   0.81989   0.00000  Uiso   1.00
C294   C     0.90281   0.30081   0.89203   0.00000  Uiso   1.00
C295   C     0.96045   0.22716   0.86340   0.00000  Uiso   1.00
C296   C     0.03089   0.21283   0.84069   0.00000  Uiso   1.00
C297   C     0.79880   0.39132   0.99131   0.00000  Uiso   1.00
C298   C     0.76899   0.39375   0.04615   0.00000  Uiso   1.00
C299   C     0.75189   0.45561   0.10702   0.00000  Uiso   1.00
H300   H     0.85373   0.47909   0.93517   0.00000  Uiso   1.00
H301   H     0.76614   0.51019   0.86528   0.00000  Uiso   1.00
H302   H     0.99498   0.38826   0.87956   0.00000  Uiso   1.00
H303   H     0.80355   0.55482   0.06227   0.00000  Uiso   1.00
H304   H     0.66362   0.51939   0.78524   0.00000  Uiso   1.00
H305   H     0.14615   0.26228   0.81536   0.00000  Uiso   1.00
H306   H     0.74251   0.61352   0.20066   0.00000  Uiso   1.00
H307   H     0.81196   0.28435   0.91566   0.00000  Uiso   1.00
H308   H     0.72207   0.30477   0.84470   0.00000  Uiso   1.00
H309   H     0.95091   0.18283   0.85897   0.00000  Uiso   1.00
H310   H     0.75949   0.34940   0.04169   0.00000  Uiso   1.00
H311   H     0.62786   0.35265   0.76853   0.00000  Uiso   1.00
H312   H     0.11039   0.09555   0.79866   0.00000  Uiso   1.00
H313   H     0.70674   0.44678   0.18395   0.00000  Uiso   1.00
O314   O     0.58738   0.45295   0.73054   0.00000  Uiso   1.00
O315   O     0.22045   0.11564   0.77007   0.00000  Uiso   1.00
O316   O     0.69087   0.57646   0.27557   0.00000  Uiso   1.00
N317   N     0.66753   0.47735   0.79106   0.00000  Uiso   1.00
N318   N     0.11867   0.23697   0.81921   0.00000  Uiso   1.00
N319   N     0.74131   0.56534   0.17943   0.00000  Uiso   1.00
N320   N     0.64829   0.38764   0.78207   0.00000  Uiso   1.00
N321   N     0.09942   0.14725   0.81022   0.00000  Uiso   1.00
N322   N     0.72206   0.47562   0.17044   0.00000  Uiso   1.00
C323   C     0.47937   0.79517   0.84420   0.00000  Uiso   1.00
C324   C     0.44203   0.74783   0.82546   0.00000  Uiso   1.00
C325   C     0.47821   0.66996   0.78967   0.00000  Uiso   1.00
C326   C     0.43411   0.63724   0.77766   0.00000  Uiso   1.00
C327   C     0.38792   0.55709   0.74509   0.00000  Uiso   1.00
C328   C     0.45114   0.84510   0.91888   0.00000  Uiso   1.00
C329   C     0.49497   0.84903   0.96164   0.00000  Uiso   1.00
C330   C     0.45854   0.89821   0.02827   0.00000  Uiso   1.00
C331   C     0.42649   0.96912   0.14073   0.00000  Uiso   1.00
C332   C     0.44718   0.84764   0.81725   0.00000  Uiso   1.00
C333   C     0.48769   0.85372   0.77458   0.00000  Uiso   1.00
C334   C     0.44792   0.90505   0.75565   0.00000  Uiso   1.00
C335   C     0.40974   0.97991   0.71033   0.00000  Uiso   1.00
C336   C     0.33672   0.87553   0.88649   0.00000  Uiso   1.00
C337   C     0.36455   0.79148   0.84843   0.00000  Uiso   1.00
C338   C     0.32038   0.75887   0.83646   0.00000  Uiso   1.00
C339   C     0.35649   0.68097   0.80067   0.00000  Uiso   1.00
C340   C     0.37366   0.88875   0.94185   0.00000  Uiso   1.00
C341   C     0.33715   0.93793   0.00843   0.00000  Uiso   1.00
C342   C     0.38091   0.94193   0.05128   0.00000  Uiso   1.00
C343   C     0.36970   0.89129   0.84022   0.00000  Uiso   1.00
C344   C     0.32986   0.94262   0.82136   0.00000  Uiso   1.00
C345   C     0.37030   0.94878   0.77866   0.00000  Uiso   1.00
H346   H     0.53969   0.76119   0.82632   0.00000  Uiso   1.00
H347   H     0.53817   0.63620   0.77191   0.00000  Uiso   1.00
H348   H     0.55493   0.81525   0.94385   0.00000  Uiso   1.00
H349   H     0.54765   0.81994   0.75681   0.00000  Uiso   1.00
H350   H     0.50232   0.51688   0.72174   0.00000  Uiso   1.00
H351   H     0.53766   0.89443   0.08428   0.00000  Uiso   1.00
H352   H     0.52231   0.90432   0.68988   0.00000  Uiso   1.00
H353   H     0.27639   0.90951   0.90437   0.00000  Uiso   1.00
H354   H     0.26042   0.79266   0.85424   0.00000  Uiso   1.00
H355   H     0.27719   0.97170   0.02618   0.00000  Uiso   1.00
H356   H     0.26991   0.97639   0.83914   0.00000  Uiso   1.00
H357   H     0.27689   0.64386   0.78856   0.00000  Uiso   1.00
H358   H     0.31223   0.02142   0.15111   0.00000  Uiso   1.00
H359   H     0.29688   0.03130   0.75670   0.00000  Uiso   1.00
O360   O     0.38385   0.50083   0.72079   0.00000  Uiso   1.00
O361   O     0.43022   0.99617   0.19642   0.00000  Uiso   1.00
O362   O     0.41007   0.00913   0.67897   0.00000  Uiso   1.00
N363   N     0.45145   0.56280   0.74434   0.00000  Uiso   1.00
N364   N     0.48450   0.91578   0.08329   0.00000  Uiso   1.00
N365   N     0.47014   0.92504   0.71457   0.00000  Uiso   1.00
N366   N     0.33015   0.63113   0.78029   0.00000  Uiso   1.00
N367   N     0.36319   0.98411   0.11925   0.00000  Uiso   1.00
N368   N     0.34884   0.99336   0.75053   0.00000  Uiso   1.00
C369   C     0.87777   0.36950   0.45940   0.00000  Uiso   1.00
C370   C     0.82091   0.34447   0.45813   0.00000  Uiso   1.00
C371   C     0.78653   0.34549   0.51003   0.00000  Uiso   1.00
C372   C     0.73613   0.32030   0.49904   0.00000  Uiso   1.00
C373   C     0.65015   0.28532   0.50632   0.00000  Uiso   1.00
C374   C     0.84669   0.42963   0.44049   0.00000  Uiso   1.00
C375   C     0.83398   0.50224   0.47757   0.00000  Uiso   1.00
C376   C     0.80529   0.54874   0.45172   0.00000  Uiso   1.00
C377   C     0.75939   0.64595   0.43159   0.00000  Uiso   1.00
C378   C     0.94629   0.30250   0.40293   0.00000  Uiso   1.00
C379   C     0.01733   0.26823   0.40843   0.00000  Uiso   1.00
C380   C     0.07250   0.20770   0.35095   0.00000  Uiso   1.00
C381   C     0.18124   0.10754   0.27252   0.00000  Uiso   1.00
C382   C     0.84942   0.32296   0.34756   0.00000  Uiso   1.00
C383   C     0.80551   0.31919   0.39738   0.00000  Uiso   1.00
C384   C     0.75516   0.29399   0.38630   0.00000  Uiso   1.00
C385   C     0.72070   0.29497   0.43818   0.00000  Uiso   1.00
C386   C     0.83129   0.40435   0.37975   0.00000  Uiso   1.00
C387   C     0.80262   0.45075   0.35383   0.00000  Uiso   1.00
C388   C     0.78987   0.52341   0.39086   0.00000  Uiso   1.00
C389   C     0.93089   0.27722   0.34219   0.00000  Uiso   1.00
C390   C     0.98596   0.21674   0.28469   0.00000  Uiso   1.00
C391   C     0.05708   0.18238   0.29010   0.00000  Uiso   1.00
H392   H     0.88976   0.38918   0.50669   0.00000  Uiso   1.00
H393   H     0.79845   0.36506   0.55704   0.00000  Uiso   1.00
H394   H     0.84591   0.52179   0.52457   0.00000  Uiso   1.00
H395   H     0.02923   0.28781   0.45544   0.00000  Uiso   1.00
H396   H     0.69041   0.32719   0.58608   0.00000  Uiso   1.00
H397   H     0.79050   0.65765   0.51761   0.00000  Uiso   1.00
H398   H     0.17706   0.16427   0.37184   0.00000  Uiso   1.00
H399   H     0.83743   0.30327   0.30026   0.00000  Uiso   1.00
H400   H     0.74325   0.27443   0.33929   0.00000  Uiso   1.00
H401   H     0.79071   0.43116   0.30682   0.00000  Uiso   1.00
H402   H     0.97403   0.19719   0.23769   0.00000  Uiso   1.00
H403   H     0.64560   0.25364   0.40935   0.00000  Uiso   1.00
H404   H     0.74570   0.58410   0.34088   0.00000  Uiso   1.00
H405   H     0.13226   0.09072   0.19511   0.00000  Uiso   1.00
O406   O     0.60698   0.27302   0.52712   0.00000  Uiso   1.00
O407   O     0.73831   0.70656   0.43728   0.00000  Uiso   1.00
O408   O     0.24546   0.05926   0.24604   0.00000  Uiso   1.00
N409   N     0.69280   0.31383   0.53913   0.00000  Uiso   1.00
N410   N     0.78637   0.62279   0.47512   0.00000  Uiso   1.00
N411   N     0.14778   0.16154   0.33883   0.00000  Uiso   1.00
N412   N     0.66869   0.27425   0.44403   0.00000  Uiso   1.00
N413   N     0.76226   0.58321   0.38002   0.00000  Uiso   1.00
N414   N     0.12367   0.12196   0.24373   0.00000  Uiso   1.00
C415   C     0.93059   0.87921   0.42848   0.00000  Uiso   1.00
C416   C     0.96029   0.79497   0.38682   0.00000  Uiso   1.00
C417   C     0.03455   0.73960   0.35849   0.00000  Uiso   1.00
C418   C     0.05032   0.66578   0.32215   0.00000  Uiso   1.00
C419   C     0.10503   0.53768   0.25861   0.00000  Uiso   1.00
C420   C     0.87871   0.91464   0.39512   0.00000  Uiso   1.00
C421   C     0.88437   0.95991   0.37377   0.00000  Uiso   1.00
C422   C     0.83144   0.98684   0.34443   0.00000  Uiso   1.00
C423   C     0.75946   0.04458   0.29382   0.00000  Uiso   1.00
C424   C     0.88147   0.90564   0.49381   0.00000  Uiso   1.00
C425   C     0.88943   0.94336   0.55543   0.00000  Uiso   1.00
C426   C     0.83882   0.96273   0.60918   0.00000  Uiso   1.00
C427   C     0.77112   0.00649   0.71178   0.00000  Uiso   1.00
C428   C     0.82653   0.84656   0.41435   0.00000  Uiso   1.00
C429   C     0.90377   0.77724   0.37915   0.00000  Uiso   1.00
C430   C     0.91942   0.70348   0.34285   0.00000  Uiso   1.00
C431   C     0.99370   0.64802   0.31447   0.00000  Uiso   1.00
C432   C     0.82219   0.89691   0.38745   0.00000  Uiso   1.00
C433   C     0.76924   0.92379   0.35814   0.00000  Uiso   1.00
C434   C     0.77482   0.96908   0.33675   0.00000  Uiso   1.00
C435   C     0.82494   0.88791   0.48613   0.00000  Uiso   1.00
C436   C     0.77431   0.90723   0.53980   0.00000  Uiso   1.00
C437   C     0.78219   0.94496   0.60149   0.00000  Uiso   1.00
H438   H     0.97459   0.89301   0.43445   0.00000  Uiso   1.00
H439   H     0.07828   0.75335   0.36443   0.00000  Uiso   1.00
H440   H     0.92811   0.97363   0.37972   0.00000  Uiso   1.00
H441   H     0.93318   0.95707   0.56135   0.00000  Uiso   1.00
H442   H     0.16831   0.59069   0.28339   0.00000  Uiso   1.00
H443   H     0.85165   0.05517   0.31566   0.00000  Uiso   1.00
H444   H     0.86233   0.02026   0.69865   0.00000  Uiso   1.00
H445   H     0.78253   0.83276   0.40838   0.00000  Uiso   1.00
H446   H     0.87567   0.68978   0.33692   0.00000  Uiso   1.00
H447   H     0.72551   0.91006   0.35221   0.00000  Uiso   1.00
H448   H     0.73057   0.89350   0.53384   0.00000  Uiso   1.00
H449   H     0.00387   0.53909   0.26106   0.00000  Uiso   1.00
H450   H     0.68721   0.00358   0.29333   0.00000  Uiso   1.00
H451   H     0.69789   0.96867   0.67632   0.00000  Uiso   1.00
O452   O     0.15083   0.47192   0.22567   0.00000  Uiso   1.00
O453   O     0.73538   0.08133   0.26802   0.00000  Uiso   1.00
O454   O     0.74940   0.03551   0.77050   0.00000  Uiso   1.00
N455   N     0.11682   0.59816   0.28795   0.00000  Uiso   1.00
N456   N     0.82078   0.03242   0.31811   0.00000  Uiso   1.00
N457   N     0.83075   0.99980   0.67618   0.00000  Uiso   1.00
N458   N     0.02834   0.57040   0.27594   0.00000  Uiso   1.00
N459   N     0.73229   0.00466   0.30610   0.00000  Uiso   1.00
N460   N     0.74227   0.97204   0.66417   0.00000  Uiso   1.00
C461   C     0.38093   0.37962   0.33555   0.00000  Uiso   1.00
C462   C     0.35465   0.32274   0.30956   0.00000  Uiso   1.00
C463   C     0.30639   0.32141   0.27077   0.00000  Uiso   1.00
C464   C     0.28915   0.26483   0.25208   0.00000  Uiso   1.00
C465   C     0.24375   0.18465   0.20880   0.00000  Uiso   1.00
C466   C     0.36056   0.41492   0.41005   0.00000  Uiso   1.00
C467   C     0.31729   0.49110   0.45575   0.00000  Uiso   1.00
C468   C     0.30504   0.51210   0.52165   0.00000  Uiso   1.00
C469   C     0.26887   0.57504   0.63439   0.00000  Uiso   1.00
C470   C     0.46541   0.33394   0.31156   0.00000  Uiso   1.00
C471   C     0.51030   0.34203   0.27446   0.00000  Uiso   1.00
C472   C     0.58633   0.29487   0.25744   0.00000  Uiso   1.00
C473   C     0.71295   0.23207   0.21725   0.00000  Uiso   1.00
C474   C     0.43614   0.28149   0.37133   0.00000  Uiso   1.00
C475   C     0.38463   0.26945   0.32900   0.00000  Uiso   1.00
C476   C     0.36747   0.21285   0.31035   0.00000  Uiso   1.00
C477   C     0.31919   0.21143   0.27154   0.00000  Uiso   1.00
C478   C     0.39055   0.36163   0.42949   0.00000  Uiso   1.00
C479   C     0.37836   0.38253   0.49533   0.00000  Uiso   1.00
C480   C     0.33508   0.45871   0.54112   0.00000  Uiso   1.00
C481   C     0.49540   0.28064   0.33099   0.00000  Uiso   1.00
C482   C     0.57138   0.23346   0.31404   0.00000  Uiso   1.00
C483   C     0.61637   0.24148   0.27691   0.00000  Uiso   1.00
H484   H     0.35759   0.42111   0.32042   0.00000  Uiso   1.00
H485   H     0.28319   0.36268   0.25575   0.00000  Uiso   1.00
H486   H     0.29410   0.53233   0.44070   0.00000  Uiso   1.00
H487   H     0.48708   0.38329   0.25943   0.00000  Uiso   1.00
H488   H     0.21391   0.27440   0.19263   0.00000  Uiso   1.00
H489   H     0.23693   0.63212   0.58261   0.00000  Uiso   1.00
H490   H     0.64387   0.31784   0.20037   0.00000  Uiso   1.00
H491   H     0.45948   0.23999   0.38646   0.00000  Uiso   1.00
H492   H     0.39068   0.17161   0.32540   0.00000  Uiso   1.00
H493   H     0.40158   0.34127   0.51035   0.00000  Uiso   1.00
H494   H     0.59456   0.19222   0.32908   0.00000  Uiso   1.00
H495   H     0.30115   0.11932   0.24917   0.00000  Uiso   1.00
H496   H     0.32417   0.47705   0.63915   0.00000  Uiso   1.00
H497   H     0.73110   0.16276   0.25690   0.00000  Uiso   1.00
O498   O     0.21041   0.15516   0.17957   0.00000  Uiso   1.00
O499   O     0.24062   0.62448   0.69120   0.00000  Uiso   1.00
O500   O     0.77451   0.21215   0.18970   0.00000  Uiso   1.00
N501   N     0.24390   0.24727   0.21431   0.00000  Uiso   1.00
N502   N     0.26541   0.58173   0.57891   0.00000  Uiso   1.00
N503   N     0.64586   0.28791   0.22156   0.00000  Uiso   1.00
N504   N     0.29084   0.16383   0.24473   0.00000  Uiso   1.00
N505   N     0.31235   0.49828   0.60933   0.00000  Uiso   1.00
N506   N     0.69280   0.20447   0.25198   0.00000  Uiso   1.00
C507   C     0.40416   0.36561   0.97620   0.00000  Uiso   1.00
C508   C     0.37790   0.30904   0.94636   0.00000  Uiso   1.00
C509   C     0.33248   0.29928   0.98116   0.00000  Uiso   1.00
C510   C     0.31476   0.24455   0.94481   0.00000  Uiso   1.00
C511   C     0.26994   0.16327   0.90891   0.00000  Uiso   1.00
C512   C     0.48864   0.32013   0.95183   0.00000  Uiso   1.00
C513   C     0.53631   0.31970   0.99124   0.00000  Uiso   1.00
C514   C     0.61181   0.27431   0.95950   0.00000  Uiso   1.00
C515   C     0.73890   0.21029   0.93211   0.00000  Uiso   1.00
C516   C     0.37975   0.41296   0.94376   0.00000  Uiso   1.00
C517   C     0.33588   0.49060   0.97637   0.00000  Uiso   1.00
C518   C     0.31972   0.52338   0.93783   0.00000  Uiso   1.00
C519   C     0.27774   0.60351   0.89790   0.00000  Uiso   1.00
C520   C     0.45347   0.28578   0.84974   0.00000  Uiso   1.00
C521   C     0.40468   0.26568   0.87767   0.00000  Uiso   1.00
C522   C     0.38702   0.21095   0.84125   0.00000  Uiso   1.00
C523   C     0.34158   0.20111   0.87600   0.00000  Uiso   1.00
C524   C     0.51542   0.27676   0.88315   0.00000  Uiso   1.00
C525   C     0.59086   0.23137   0.85134   0.00000  Uiso   1.00
C526   C     0.63864   0.23087   0.89069   0.00000  Uiso   1.00
C527   C     0.40652   0.36960   0.87507   0.00000  Uiso   1.00
C528   C     0.39043   0.40227   0.83646   0.00000  Uiso   1.00
C529   C     0.34655   0.47994   0.86902   0.00000  Uiso   1.00
H530   H     0.38332   0.39937   0.02967   0.00000  Uiso   1.00
H531   H     0.31177   0.33284   0.03432   0.00000  Uiso   1.00
H532   H     0.51557   0.35326   0.04440   0.00000  Uiso   1.00
H533   H     0.31517   0.52414   0.02953   0.00000  Uiso   1.00
H534   H     0.24428   0.23994   0.00917   0.00000  Uiso   1.00
H535   H     0.67400   0.28302   0.03043   0.00000  Uiso   1.00
H536   H     0.25142   0.64334   0.99907   0.00000  Uiso   1.00
H537   H     0.47432   0.25202   0.79627   0.00000  Uiso   1.00
H538   H     0.40776   0.17740   0.78810   0.00000  Uiso   1.00
H539   H     0.61156   0.19783   0.79818   0.00000  Uiso   1.00
H540   H     0.41116   0.36870   0.78331   0.00000  Uiso   1.00
H541   H     0.32219   0.11377   0.80933   0.00000  Uiso   1.00
H542   H     0.75192   0.15686   0.83059   0.00000  Uiso   1.00
H543   H     0.32933   0.51718   0.79924   0.00000  Uiso   1.00
O544   O     0.23782   0.13041   0.90809   0.00000  Uiso   1.00
O545   O     0.80161   0.18695   0.93598   0.00000  Uiso   1.00
O546   O     0.24719   0.65968   0.89485   0.00000  Uiso   1.00
N547   N     0.27173   0.22049   0.96326   0.00000  Uiso   1.00
N548   N     0.67351   0.26077   0.98313   0.00000  Uiso   1.00
N549   N     0.27844   0.59764   0.95382   0.00000  Uiso   1.00
N550   N     0.31366   0.15261   0.85573   0.00000  Uiso   1.00
N551   N     0.71543   0.19288   0.87560   0.00000  Uiso   1.00
N552   N     0.32036   0.52975   0.84629   0.00000  Uiso   1.00
