data_job_01506
_audit_creation_date              2018-12-19
_audit_creation_method            'Materials Studio'
_symmetry_space_group_name_H-M    'P1'
_symmetry_Int_Tables_number       1
_symmetry_cell_setting            triclinic
loop_
_symmetry_equiv_pos_as_xyz
  x,y,z
_cell_length_a                    32.0602
_cell_length_b                    32.0602
_cell_length_c                    7.1945
_cell_angle_alpha                 90.0000
_cell_angle_beta                  90.0000
_cell_angle_gamma                 120.0000
loop_
_atom_site_label
_atom_site_type_symbol
_atom_site_fract_x
_atom_site_fract_y
_atom_site_fract_z
_atom_site_U_iso_or_equiv
_atom_site_adp_type
_atom_site_occupancy
C1     C     0.52411   0.69785   0.03556   0.00000  Uiso   1.00
C2     C     0.55467   0.67708   0.10772   0.00000  Uiso   1.00
C3     C     0.58373   0.66591   0.00039   0.00000  Uiso   1.00
C4     C     0.60883   0.64724   0.09263   0.00000  Uiso   1.00
C5     C     0.65685   0.61607   0.17536   0.00000  Uiso   1.00
C6     C     0.47268   0.66305   0.09796   0.00000  Uiso   1.00
C7     C     0.43280   0.64010   0.98243   0.00000  Uiso   1.00
C8     C     0.38887   0.60962   0.06647   0.00000  Uiso   1.00
C9     C     0.30959   0.55671   0.13407   0.00000  Uiso   1.00
C10    C     0.54010   0.74428   0.14404   0.00000  Uiso   1.00
C11    C     0.55689   0.78963   0.06725   0.00000  Uiso   1.00
C12    C     0.56971   0.82755   0.19008   0.00000  Uiso   1.00
C13    C     0.59512   0.90075   0.32922   0.00000  Uiso   1.00
C14    C     0.51700   0.68454   0.39022   0.00000  Uiso   1.00
C15    C     0.55081   0.66985   0.30036   0.00000  Uiso   1.00
C16    C     0.57586   0.65119   0.39279   0.00000  Uiso   1.00
C17    C     0.60496   0.64000   0.28562   0.00000  Uiso   1.00
C18    C     0.46881   0.65582   0.29060   0.00000  Uiso   1.00
C19    C     0.42493   0.62538   0.37483   0.00000  Uiso   1.00
C20    C     0.38500   0.60238   0.25946   0.00000  Uiso   1.00
C21    C     0.53623   0.73706   0.33668   0.00000  Uiso   1.00
C22    C     0.54903   0.77491   0.45965   0.00000  Uiso   1.00
C23    C     0.56584   0.82031   0.38307   0.00000  Uiso   1.00
H24    H     0.52711   0.70347   0.88558   0.00000  Uiso   1.00
H25    H     0.58671   0.67151   0.85131   0.00000  Uiso   1.00
H26    H     0.43580   0.64570   0.83336   0.00000  Uiso   1.00
H27    H     0.55988   0.79521   0.91817   0.00000  Uiso   1.00
H28    H     0.65107   0.63287   0.89826   0.00000  Uiso   1.00
H29    H     0.33286   0.57847   0.86042   0.00000  Uiso   1.00
H30    H     0.59450   0.89374   0.03926   0.00000  Uiso   1.00
H31    H     0.51399   0.67891   0.54021   0.00000  Uiso   1.00
H32    H     0.57287   0.64560   0.54187   0.00000  Uiso   1.00
H33    H     0.42195   0.61979   0.52391   0.00000  Uiso   1.00
H34    H     0.54603   0.76930   0.60872   0.00000  Uiso   1.00
H35    H     0.63983   0.61184   0.45874   0.00000  Uiso   1.00
H36    H     0.32162   0.55744   0.42090   0.00000  Uiso   1.00
H37    H     0.58326   0.87271   0.59973   0.00000  Uiso   1.00
O38    O     0.68441   0.60087   0.16777   0.00000  Uiso   1.00
O39    O     0.26693   0.52951   0.11813   0.00000  Uiso   1.00
O40    O     0.61020   0.94313   0.35275   0.00000  Uiso   1.00
N41    N     0.64035   0.63250   0.02995   0.00000  Uiso   1.00
N42    N     0.34285   0.58163   0.99457   0.00000  Uiso   1.00
N43    N     0.58745   0.87638   0.16176   0.00000  Uiso   1.00
N44    N     0.63430   0.62118   0.33154   0.00000  Uiso   1.00
N45    N     0.33680   0.57032   0.29616   0.00000  Uiso   1.00
N46    N     0.58140   0.86506   0.46335   0.00000  Uiso   1.00
C47    C     0.30215   0.82626   0.70222   0.00000  Uiso   1.00
C48    C     0.32292   0.87759   0.77438   0.00000  Uiso   1.00
C49    C     0.33409   0.91782   0.66706   0.00000  Uiso   1.00
C50    C     0.35276   0.96159   0.75930   0.00000  Uiso   1.00
C51    C     0.38393   0.04078   0.84203   0.00000  Uiso   1.00
C52    C     0.33695   0.80963   0.76463   0.00000  Uiso   1.00
C53    C     0.35990   0.79270   0.64910   0.00000  Uiso   1.00
C54    C     0.39038   0.77924   0.73314   0.00000  Uiso   1.00
C55    C     0.44329   0.75288   0.80074   0.00000  Uiso   1.00
C56    C     0.25572   0.79581   0.81070   0.00000  Uiso   1.00
C57    C     0.21037   0.76726   0.73392   0.00000  Uiso   1.00
C58    C     0.17245   0.74217   0.85675   0.00000  Uiso   1.00
C59    C     0.09925   0.69436   0.99588   0.00000  Uiso   1.00
C60    C     0.31546   0.83246   0.05689   0.00000  Uiso   1.00
C61    C     0.33015   0.88096   0.96703   0.00000  Uiso   1.00
C62    C     0.34881   0.92467   0.05946   0.00000  Uiso   1.00
C63    C     0.36000   0.96496   0.95229   0.00000  Uiso   1.00
C64    C     0.34418   0.81299   0.95726   0.00000  Uiso   1.00
C65    C     0.37462   0.79955   0.04150   0.00000  Uiso   1.00
C66    C     0.39762   0.78261   0.92613   0.00000  Uiso   1.00
C67    C     0.26294   0.79918   0.00335   0.00000  Uiso   1.00
C68    C     0.22509   0.77412   0.12632   0.00000  Uiso   1.00
C69    C     0.17969   0.74554   0.04974   0.00000  Uiso   1.00
H70    H     0.29653   0.82364   0.55225   0.00000  Uiso   1.00
H71    H     0.32849   0.91520   0.51798   0.00000  Uiso   1.00
H72    H     0.35430   0.79009   0.50003   0.00000  Uiso   1.00
H73    H     0.20479   0.76467   0.58484   0.00000  Uiso   1.00
H74    H     0.36713   0.01820   0.56493   0.00000  Uiso   1.00
H75    H     0.42153   0.75439   0.52709   0.00000  Uiso   1.00
H76    H     0.10626   0.70076   0.70592   0.00000  Uiso   1.00
H77    H     0.32109   0.83508   0.20688   0.00000  Uiso   1.00
H78    H     0.35440   0.92727   0.20853   0.00000  Uiso   1.00
H79    H     0.38021   0.80216   0.19058   0.00000  Uiso   1.00
H80    H     0.23070   0.77673   0.27539   0.00000  Uiso   1.00
H81    H     0.38816   0.02799   0.12541   0.00000  Uiso   1.00
H82    H     0.44256   0.76418   0.08756   0.00000  Uiso   1.00
H83    H     0.12729   0.71056   0.26640   0.00000  Uiso   1.00
O84    O     0.39913   0.08354   0.83444   0.00000  Uiso   1.00
O85    O     0.47049   0.73742   0.78479   0.00000  Uiso   1.00
O86    O     0.05687   0.66707   0.01942   0.00000  Uiso   1.00
N87    N     0.36750   0.00785   0.69662   0.00000  Uiso   1.00
N88    N     0.41837   0.76121   0.66123   0.00000  Uiso   1.00
N89    N     0.12362   0.71107   0.82843   0.00000  Uiso   1.00
N90    N     0.37882   0.01312   0.99821   0.00000  Uiso   1.00
N91    N     0.42968   0.76648   0.96282   0.00000  Uiso   1.00
N92    N     0.13494   0.71634   0.13001   0.00000  Uiso   1.00
C93    C     0.17374   0.47589   0.36889   0.00000  Uiso   1.00
C94    C     0.12241   0.44533   0.44105   0.00000  Uiso   1.00
C95    C     0.08218   0.41627   0.33373   0.00000  Uiso   1.00
C96    C     0.03841   0.39117   0.42596   0.00000  Uiso   1.00
C97    C     0.95922   0.34315   0.50870   0.00000  Uiso   1.00
C98    C     0.19037   0.52732   0.43130   0.00000  Uiso   1.00
C99    C     0.20730   0.56720   0.31577   0.00000  Uiso   1.00
C100   C     0.22076   0.61113   0.39980   0.00000  Uiso   1.00
C101   C     0.24712   0.69041   0.46740   0.00000  Uiso   1.00
C102   C     0.20419   0.45990   0.47737   0.00000  Uiso   1.00
C103   C     0.23274   0.44311   0.40059   0.00000  Uiso   1.00
C104   C     0.25783   0.43029   0.52342   0.00000  Uiso   1.00
C105   C     0.30564   0.40488   0.66255   0.00000  Uiso   1.00
C106   C     0.16754   0.48300   0.72356   0.00000  Uiso   1.00
C107   C     0.11904   0.44919   0.63369   0.00000  Uiso   1.00
C108   C     0.07533   0.42414   0.72612   0.00000  Uiso   1.00
C109   C     0.03504   0.39504   0.61895   0.00000  Uiso   1.00
C110   C     0.18701   0.53119   0.62393   0.00000  Uiso   1.00
C111   C     0.20045   0.57507   0.70816   0.00000  Uiso   1.00
C112   C     0.21739   0.61500   0.59279   0.00000  Uiso   1.00
C113   C     0.20082   0.46377   0.67001   0.00000  Uiso   1.00
C114   C     0.22588   0.45097   0.79299   0.00000  Uiso   1.00
C115   C     0.25446   0.43416   0.71640   0.00000  Uiso   1.00
H116   H     0.17636   0.47289   0.21891   0.00000  Uiso   1.00
H117   H     0.08480   0.41329   0.18464   0.00000  Uiso   1.00
H118   H     0.20991   0.56420   0.16670   0.00000  Uiso   1.00
H119   H     0.23533   0.44012   0.25151   0.00000  Uiso   1.00
H120   H     0.98180   0.34893   0.23160   0.00000  Uiso   1.00
H121   H     0.24561   0.66714   0.19376   0.00000  Uiso   1.00
H122   H     0.29924   0.40550   0.37259   0.00000  Uiso   1.00
H123   H     0.16492   0.48601   0.87354   0.00000  Uiso   1.00
H124   H     0.07273   0.42713   0.87520   0.00000  Uiso   1.00
H125   H     0.19784   0.57805   0.85724   0.00000  Uiso   1.00
H126   H     0.22327   0.45397   0.94205   0.00000  Uiso   1.00
H127   H     0.97201   0.36017   0.79208   0.00000  Uiso   1.00
H128   H     0.23582   0.67838   0.75423   0.00000  Uiso   1.00
H129   H     0.28944   0.41674   0.93307   0.00000  Uiso   1.00
O130   O     0.91646   0.31559   0.50111   0.00000  Uiso   1.00
O131   O     0.26258   0.73307   0.45146   0.00000  Uiso   1.00
O132   O     0.33293   0.38980   0.68608   0.00000  Uiso   1.00
N133   N     0.99215   0.35965   0.36329   0.00000  Uiso   1.00
N134   N     0.23879   0.65715   0.32790   0.00000  Uiso   1.00
N135   N     0.28893   0.41255   0.49509   0.00000  Uiso   1.00
N136   N     0.98688   0.36570   0.66487   0.00000  Uiso   1.00
N137   N     0.23352   0.66320   0.62949   0.00000  Uiso   1.00
N138   N     0.28366   0.41860   0.79668   0.00000  Uiso   1.00
C139   C     0.47589   0.30215   0.03556   0.00000  Uiso   1.00
C140   C     0.44533   0.32292   0.10772   0.00000  Uiso   1.00
C141   C     0.41627   0.33409   0.00039   0.00000  Uiso   1.00
C142   C     0.39117   0.35276   0.09263   0.00000  Uiso   1.00
C143   C     0.34315   0.38393   0.17536   0.00000  Uiso   1.00
C144   C     0.52732   0.33695   0.09796   0.00000  Uiso   1.00
C145   C     0.56720   0.35990   0.98243   0.00000  Uiso   1.00
C146   C     0.61113   0.39038   0.06647   0.00000  Uiso   1.00
C147   C     0.69041   0.44329   0.13407   0.00000  Uiso   1.00
C148   C     0.45990   0.25572   0.14404   0.00000  Uiso   1.00
C149   C     0.44311   0.21037   0.06725   0.00000  Uiso   1.00
C150   C     0.43029   0.17245   0.19008   0.00000  Uiso   1.00
C151   C     0.40488   0.09925   0.32922   0.00000  Uiso   1.00
C152   C     0.48300   0.31546   0.39022   0.00000  Uiso   1.00
C153   C     0.44919   0.33015   0.30036   0.00000  Uiso   1.00
C154   C     0.42414   0.34881   0.39279   0.00000  Uiso   1.00
C155   C     0.39504   0.36000   0.28562   0.00000  Uiso   1.00
C156   C     0.53119   0.34418   0.29060   0.00000  Uiso   1.00
C157   C     0.57507   0.37462   0.37483   0.00000  Uiso   1.00
C158   C     0.61500   0.39762   0.25946   0.00000  Uiso   1.00
C159   C     0.46377   0.26294   0.33668   0.00000  Uiso   1.00
C160   C     0.45097   0.22509   0.45965   0.00000  Uiso   1.00
C161   C     0.43416   0.17969   0.38307   0.00000  Uiso   1.00
H162   H     0.47289   0.29653   0.88558   0.00000  Uiso   1.00
H163   H     0.41329   0.32849   0.85131   0.00000  Uiso   1.00
H164   H     0.56420   0.35430   0.83336   0.00000  Uiso   1.00
H165   H     0.44012   0.20479   0.91817   0.00000  Uiso   1.00
H166   H     0.34893   0.36713   0.89826   0.00000  Uiso   1.00
H167   H     0.66714   0.42153   0.86042   0.00000  Uiso   1.00
H168   H     0.40550   0.10626   0.03926   0.00000  Uiso   1.00
H169   H     0.48601   0.32109   0.54021   0.00000  Uiso   1.00
H170   H     0.42713   0.35440   0.54187   0.00000  Uiso   1.00
H171   H     0.57805   0.38021   0.52391   0.00000  Uiso   1.00
H172   H     0.45397   0.23070   0.60872   0.00000  Uiso   1.00
H173   H     0.36017   0.38816   0.45874   0.00000  Uiso   1.00
H174   H     0.67838   0.44256   0.42090   0.00000  Uiso   1.00
H175   H     0.41674   0.12729   0.59973   0.00000  Uiso   1.00
O176   O     0.31559   0.39913   0.16777   0.00000  Uiso   1.00
O177   O     0.73307   0.47049   0.11813   0.00000  Uiso   1.00
O178   O     0.38980   0.05687   0.35275   0.00000  Uiso   1.00
N179   N     0.35965   0.36750   0.02995   0.00000  Uiso   1.00
N180   N     0.65715   0.41837   0.99457   0.00000  Uiso   1.00
N181   N     0.41255   0.12362   0.16176   0.00000  Uiso   1.00
N182   N     0.36570   0.37882   0.33154   0.00000  Uiso   1.00
N183   N     0.66320   0.42968   0.29616   0.00000  Uiso   1.00
N184   N     0.41860   0.13494   0.46335   0.00000  Uiso   1.00
C185   C     0.69785   0.17374   0.70222   0.00000  Uiso   1.00
C186   C     0.67708   0.12241   0.77438   0.00000  Uiso   1.00
C187   C     0.66591   0.08218   0.66706   0.00000  Uiso   1.00
C188   C     0.64724   0.03841   0.75930   0.00000  Uiso   1.00
C189   C     0.61607   0.95922   0.84203   0.00000  Uiso   1.00
C190   C     0.66305   0.19037   0.76463   0.00000  Uiso   1.00
C191   C     0.64010   0.20730   0.64910   0.00000  Uiso   1.00
C192   C     0.60962   0.22076   0.73314   0.00000  Uiso   1.00
C193   C     0.55671   0.24712   0.80074   0.00000  Uiso   1.00
C194   C     0.74428   0.20419   0.81070   0.00000  Uiso   1.00
C195   C     0.78963   0.23274   0.73392   0.00000  Uiso   1.00
C196   C     0.82755   0.25783   0.85675   0.00000  Uiso   1.00
C197   C     0.90075   0.30564   0.99588   0.00000  Uiso   1.00
C198   C     0.68454   0.16754   0.05689   0.00000  Uiso   1.00
C199   C     0.66985   0.11904   0.96703   0.00000  Uiso   1.00
C200   C     0.65119   0.07533   0.05946   0.00000  Uiso   1.00
C201   C     0.64000   0.03504   0.95229   0.00000  Uiso   1.00
C202   C     0.65582   0.18701   0.95726   0.00000  Uiso   1.00
C203   C     0.62538   0.20045   0.04150   0.00000  Uiso   1.00
C204   C     0.60238   0.21739   0.92613   0.00000  Uiso   1.00
C205   C     0.73706   0.20082   0.00335   0.00000  Uiso   1.00
C206   C     0.77491   0.22588   0.12632   0.00000  Uiso   1.00
C207   C     0.82031   0.25446   0.04974   0.00000  Uiso   1.00
H208   H     0.70347   0.17636   0.55225   0.00000  Uiso   1.00
H209   H     0.67151   0.08480   0.51798   0.00000  Uiso   1.00
H210   H     0.64570   0.20991   0.50003   0.00000  Uiso   1.00
H211   H     0.79521   0.23533   0.58484   0.00000  Uiso   1.00
H212   H     0.63287   0.98180   0.56493   0.00000  Uiso   1.00
H213   H     0.57847   0.24561   0.52709   0.00000  Uiso   1.00
H214   H     0.89374   0.29924   0.70592   0.00000  Uiso   1.00
H215   H     0.67891   0.16492   0.20688   0.00000  Uiso   1.00
H216   H     0.64560   0.07273   0.20853   0.00000  Uiso   1.00
H217   H     0.61979   0.19784   0.19058   0.00000  Uiso   1.00
H218   H     0.76930   0.22327   0.27539   0.00000  Uiso   1.00
H219   H     0.61184   0.97201   0.12541   0.00000  Uiso   1.00
H220   H     0.55744   0.23582   0.08756   0.00000  Uiso   1.00
H221   H     0.87271   0.28944   0.26640   0.00000  Uiso   1.00
O222   O     0.60087   0.91646   0.83444   0.00000  Uiso   1.00
O223   O     0.52951   0.26258   0.78479   0.00000  Uiso   1.00
O224   O     0.94313   0.33293   0.01942   0.00000  Uiso   1.00
N225   N     0.63250   0.99215   0.69662   0.00000  Uiso   1.00
N226   N     0.58163   0.23879   0.66123   0.00000  Uiso   1.00
N227   N     0.87638   0.28893   0.82843   0.00000  Uiso   1.00
N228   N     0.62118   0.98688   0.99821   0.00000  Uiso   1.00
N229   N     0.57032   0.23352   0.96282   0.00000  Uiso   1.00
N230   N     0.86506   0.28366   0.13001   0.00000  Uiso   1.00
C231   C     0.82626   0.52411   0.36889   0.00000  Uiso   1.00
C232   C     0.87759   0.55467   0.44105   0.00000  Uiso   1.00
C233   C     0.91782   0.58373   0.33373   0.00000  Uiso   1.00
C234   C     0.96159   0.60883   0.42596   0.00000  Uiso   1.00
C235   C     0.04078   0.65685   0.50870   0.00000  Uiso   1.00
C236   C     0.80963   0.47268   0.43130   0.00000  Uiso   1.00
C237   C     0.79270   0.43280   0.31577   0.00000  Uiso   1.00
C238   C     0.77924   0.38887   0.39980   0.00000  Uiso   1.00
C239   C     0.75288   0.30959   0.46740   0.00000  Uiso   1.00
C240   C     0.79581   0.54010   0.47737   0.00000  Uiso   1.00
C241   C     0.76726   0.55689   0.40059   0.00000  Uiso   1.00
C242   C     0.74217   0.56971   0.52342   0.00000  Uiso   1.00
C243   C     0.69436   0.59512   0.66255   0.00000  Uiso   1.00
C244   C     0.83246   0.51700   0.72356   0.00000  Uiso   1.00
C245   C     0.88096   0.55081   0.63369   0.00000  Uiso   1.00
C246   C     0.92467   0.57586   0.72612   0.00000  Uiso   1.00
C247   C     0.96496   0.60496   0.61895   0.00000  Uiso   1.00
C248   C     0.81299   0.46881   0.62393   0.00000  Uiso   1.00
C249   C     0.79955   0.42493   0.70816   0.00000  Uiso   1.00
C250   C     0.78261   0.38500   0.59279   0.00000  Uiso   1.00
C251   C     0.79918   0.53623   0.67001   0.00000  Uiso   1.00
C252   C     0.77412   0.54903   0.79299   0.00000  Uiso   1.00
C253   C     0.74554   0.56584   0.71640   0.00000  Uiso   1.00
H254   H     0.82364   0.52711   0.21891   0.00000  Uiso   1.00
H255   H     0.91520   0.58671   0.18464   0.00000  Uiso   1.00
H256   H     0.79009   0.43580   0.16670   0.00000  Uiso   1.00
H257   H     0.76467   0.55988   0.25151   0.00000  Uiso   1.00
H258   H     0.01820   0.65107   0.23160   0.00000  Uiso   1.00
H259   H     0.75439   0.33286   0.19376   0.00000  Uiso   1.00
H260   H     0.70076   0.59450   0.37259   0.00000  Uiso   1.00
H261   H     0.83508   0.51399   0.87354   0.00000  Uiso   1.00
H262   H     0.92727   0.57287   0.87520   0.00000  Uiso   1.00
H263   H     0.80216   0.42195   0.85724   0.00000  Uiso   1.00
H264   H     0.77673   0.54603   0.94205   0.00000  Uiso   1.00
H265   H     0.02799   0.63983   0.79208   0.00000  Uiso   1.00
H266   H     0.76418   0.32162   0.75423   0.00000  Uiso   1.00
H267   H     0.71056   0.58326   0.93307   0.00000  Uiso   1.00
O268   O     0.08354   0.68441   0.50111   0.00000  Uiso   1.00
O269   O     0.73742   0.26693   0.45146   0.00000  Uiso   1.00
O270   O     0.66707   0.61020   0.68608   0.00000  Uiso   1.00
N271   N     0.00785   0.64035   0.36329   0.00000  Uiso   1.00
N272   N     0.76121   0.34285   0.32790   0.00000  Uiso   1.00
N273   N     0.71107   0.58745   0.49509   0.00000  Uiso   1.00
N274   N     0.01312   0.63430   0.66487   0.00000  Uiso   1.00
N275   N     0.76648   0.33680   0.62949   0.00000  Uiso   1.00
N276   N     0.71634   0.58140   0.79668   0.00000  Uiso   1.00
