data_job_03427
_audit_creation_date              2018-12-19
_audit_creation_method            'Materials Studio'
_symmetry_space_group_name_H-M    'P1'
_symmetry_Int_Tables_number       1
_symmetry_cell_setting            triclinic
loop_
_symmetry_equiv_pos_as_xyz
  x,y,z
_cell_length_a                    7.9494
_cell_length_b                    16.9307
_cell_length_c                    20.4606
_cell_angle_alpha                 90.0000
_cell_angle_beta                  110.1275
_cell_angle_gamma                 90.0000
loop_
_atom_site_label
_atom_site_type_symbol
_atom_site_fract_x
_atom_site_fract_y
_atom_site_fract_z
_atom_site_U_iso_or_equiv
_atom_site_adp_type
_atom_site_occupancy
C1     C     0.90042   0.80148   0.09277   0.00000  Uiso   1.00
C2     C     0.88063   0.73574   0.03969   0.00000  Uiso   1.00
C3     C     0.72793   0.71986   0.98287   0.00000  Uiso   1.00
C4     C     0.73676   0.65712   0.94048   0.00000  Uiso   1.00
C5     C     0.68226   0.56189   0.85596   0.00000  Uiso   1.00
C6     C     0.95632   0.76119   0.16370   0.00000  Uiso   1.00
C7     C     0.86725   0.76673   0.21116   0.00000  Uiso   1.00
C8     C     0.93982   0.72542   0.27317   0.00000  Uiso   1.00
C9     C     0.00290   0.66975   0.38120   0.00000  Uiso   1.00
C10    C     0.06116   0.85049   0.09255   0.00000  Uiso   1.00
C11    C     0.06028   0.93112   0.08020   0.00000  Uiso   1.00
C12    C     0.22113   0.96500   0.08232   0.00000  Uiso   1.00
C13    C     0.44700   0.04799   0.07988   0.00000  Uiso   1.00
C14    C     0.18767   0.71829   0.11850   0.00000  Uiso   1.00
C15    C     0.03665   0.69055   0.05367   0.00000  Uiso   1.00
C16    C     0.04573   0.62782   0.01135   0.00000  Uiso   1.00
C17    C     0.89306   0.61185   0.95448   0.00000  Uiso   1.00
C18    C     0.11233   0.71600   0.17768   0.00000  Uiso   1.00
C19    C     0.18505   0.67468   0.23963   0.00000  Uiso   1.00
C20    C     0.09612   0.68015   0.28717   0.00000  Uiso   1.00
C21    C     0.21719   0.80531   0.10653   0.00000  Uiso   1.00
C22    C     0.37808   0.83907   0.10867   0.00000  Uiso   1.00
C23    C     0.37743   0.91973   0.09633   0.00000  Uiso   1.00
H24    H     0.77896   0.83666   0.08189   0.00000  Uiso   1.00
H25    H     0.60720   0.75484   0.97208   0.00000  Uiso   1.00
H26    H     0.74653   0.80170   0.20033   0.00000  Uiso   1.00
H27    H     0.93952   0.96607   0.06939   0.00000  Uiso   1.00
H28    H     0.48557   0.64419   0.85651   0.00000  Uiso   1.00
H29    H     0.77937   0.74302   0.33781   0.00000  Uiso   1.00
H30    H     0.18633   0.08962   0.06169   0.00000  Uiso   1.00
H31    H     0.30914   0.68310   0.12939   0.00000  Uiso   1.00
H32    H     0.16648   0.59286   0.02218   0.00000  Uiso   1.00
H33    H     0.30580   0.63972   0.25044   0.00000  Uiso   1.00
H34    H     0.49879   0.80409   0.11949   0.00000  Uiso   1.00
H35    H     0.93949   0.51272   0.89718   0.00000  Uiso   1.00
H36    H     0.23330   0.61155   0.37848   0.00000  Uiso   1.00
H37    H     0.64025   0.95815   0.10236   0.00000  Uiso   1.00
O38    O     0.60910   0.52184   0.80548   0.00000  Uiso   1.00
O39    O     0.99457   0.65152   0.43692   0.00000  Uiso   1.00
O40    O     0.52848   0.10624   0.07466   0.00000  Uiso   1.00
N41    N     0.61199   0.62564   0.88079   0.00000  Uiso   1.00
N42    N     0.88666   0.71803   0.33077   0.00000  Uiso   1.00
N43    N     0.26714   0.04208   0.07264   0.00000  Uiso   1.00
N44    N     0.85624   0.55490   0.90267   0.00000  Uiso   1.00
N45    N     0.13091   0.64729   0.35265   0.00000  Uiso   1.00
N46    N     0.51139   0.97133   0.09452   0.00000  Uiso   1.00
C47    C     0.09958   0.30148   0.40723   0.00000  Uiso   1.00
C48    C     0.11937   0.23574   0.46031   0.00000  Uiso   1.00
C49    C     0.27207   0.21986   0.51713   0.00000  Uiso   1.00
C50    C     0.26324   0.15712   0.55952   0.00000  Uiso   1.00
C51    C     0.31774   0.06189   0.64404   0.00000  Uiso   1.00
C52    C     0.04368   0.26119   0.33630   0.00000  Uiso   1.00
C53    C     0.13275   0.26673   0.28884   0.00000  Uiso   1.00
C54    C     0.06018   0.22542   0.22683   0.00000  Uiso   1.00
C55    C     0.99710   0.16975   0.11880   0.00000  Uiso   1.00
C56    C     0.93884   0.35049   0.40745   0.00000  Uiso   1.00
C57    C     0.93972   0.43112   0.41980   0.00000  Uiso   1.00
C58    C     0.77887   0.46500   0.41768   0.00000  Uiso   1.00
C59    C     0.55300   0.54799   0.42012   0.00000  Uiso   1.00
C60    C     0.81233   0.21829   0.38150   0.00000  Uiso   1.00
C61    C     0.96335   0.19055   0.44633   0.00000  Uiso   1.00
C62    C     0.95427   0.12782   0.48865   0.00000  Uiso   1.00
C63    C     0.10694   0.11185   0.54552   0.00000  Uiso   1.00
C64    C     0.88767   0.21600   0.32232   0.00000  Uiso   1.00
C65    C     0.81495   0.17468   0.26037   0.00000  Uiso   1.00
C66    C     0.90388   0.18015   0.21283   0.00000  Uiso   1.00
C67    C     0.78281   0.30531   0.39347   0.00000  Uiso   1.00
C68    C     0.62192   0.33907   0.39133   0.00000  Uiso   1.00
C69    C     0.62257   0.41973   0.40367   0.00000  Uiso   1.00
H70    H     0.22104   0.33666   0.41811   0.00000  Uiso   1.00
H71    H     0.39280   0.25484   0.52792   0.00000  Uiso   1.00
H72    H     0.25347   0.30170   0.29967   0.00000  Uiso   1.00
H73    H     0.06048   0.46607   0.43061   0.00000  Uiso   1.00
H74    H     0.51443   0.14419   0.64349   0.00000  Uiso   1.00
H75    H     0.22063   0.24302   0.16219   0.00000  Uiso   1.00
H76    H     0.81367   0.58962   0.43831   0.00000  Uiso   1.00
H77    H     0.69086   0.18310   0.37061   0.00000  Uiso   1.00
H78    H     0.83352   0.09286   0.47782   0.00000  Uiso   1.00
H79    H     0.69420   0.13972   0.24956   0.00000  Uiso   1.00
H80    H     0.50121   0.30409   0.38051   0.00000  Uiso   1.00
H81    H     0.06051   0.01272   0.60282   0.00000  Uiso   1.00
H82    H     0.76670   0.11155   0.12152   0.00000  Uiso   1.00
H83    H     0.35975   0.45815   0.39764   0.00000  Uiso   1.00
O84    O     0.39090   0.02184   0.69452   0.00000  Uiso   1.00
O85    O     0.00543   0.15152   0.06308   0.00000  Uiso   1.00
O86    O     0.47152   0.60624   0.42534   0.00000  Uiso   1.00
N87    N     0.38801   0.12564   0.61921   0.00000  Uiso   1.00
N88    N     0.11334   0.21803   0.16923   0.00000  Uiso   1.00
N89    N     0.73286   0.54208   0.42736   0.00000  Uiso   1.00
N90    N     0.14376   0.05490   0.59733   0.00000  Uiso   1.00
N91    N     0.86909   0.14729   0.14735   0.00000  Uiso   1.00
N92    N     0.48861   0.47133   0.40548   0.00000  Uiso   1.00
C93    C     0.09958   0.19852   0.90723   0.00000  Uiso   1.00
C94    C     0.11937   0.26426   0.96031   0.00000  Uiso   1.00
C95    C     0.27207   0.28014   0.01713   0.00000  Uiso   1.00
C96    C     0.26324   0.34288   0.05952   0.00000  Uiso   1.00
C97    C     0.31774   0.43811   0.14404   0.00000  Uiso   1.00
C98    C     0.04368   0.23881   0.83630   0.00000  Uiso   1.00
C99    C     0.13275   0.23327   0.78884   0.00000  Uiso   1.00
C100   C     0.06018   0.27458   0.72683   0.00000  Uiso   1.00
C101   C     0.99710   0.33025   0.61880   0.00000  Uiso   1.00
C102   C     0.93884   0.14951   0.90745   0.00000  Uiso   1.00
C103   C     0.93972   0.06888   0.91980   0.00000  Uiso   1.00
C104   C     0.77887   0.03500   0.91768   0.00000  Uiso   1.00
C105   C     0.55300   0.95201   0.92012   0.00000  Uiso   1.00
C106   C     0.81233   0.28171   0.88150   0.00000  Uiso   1.00
C107   C     0.96335   0.30945   0.94633   0.00000  Uiso   1.00
C108   C     0.95427   0.37218   0.98865   0.00000  Uiso   1.00
C109   C     0.10694   0.38815   0.04552   0.00000  Uiso   1.00
C110   C     0.88767   0.28400   0.82232   0.00000  Uiso   1.00
C111   C     0.81495   0.32532   0.76037   0.00000  Uiso   1.00
C112   C     0.90388   0.31985   0.71283   0.00000  Uiso   1.00
C113   C     0.78281   0.19469   0.89347   0.00000  Uiso   1.00
C114   C     0.62192   0.16093   0.89133   0.00000  Uiso   1.00
C115   C     0.62257   0.08027   0.90367   0.00000  Uiso   1.00
H116   H     0.22104   0.16334   0.91811   0.00000  Uiso   1.00
H117   H     0.39280   0.24516   0.02792   0.00000  Uiso   1.00
H118   H     0.25347   0.19830   0.79967   0.00000  Uiso   1.00
H119   H     0.06048   0.03393   0.93061   0.00000  Uiso   1.00
H120   H     0.51443   0.35581   0.14349   0.00000  Uiso   1.00
H121   H     0.22063   0.25698   0.66219   0.00000  Uiso   1.00
H122   H     0.81367   0.91038   0.93831   0.00000  Uiso   1.00
H123   H     0.69086   0.31690   0.87061   0.00000  Uiso   1.00
H124   H     0.83352   0.40714   0.97782   0.00000  Uiso   1.00
H125   H     0.69420   0.36028   0.74956   0.00000  Uiso   1.00
H126   H     0.50121   0.19591   0.88051   0.00000  Uiso   1.00
H127   H     0.06051   0.48728   0.10282   0.00000  Uiso   1.00
H128   H     0.76670   0.38845   0.62152   0.00000  Uiso   1.00
H129   H     0.35975   0.04185   0.89764   0.00000  Uiso   1.00
O130   O     0.39090   0.47816   0.19452   0.00000  Uiso   1.00
O131   O     0.00543   0.34848   0.56308   0.00000  Uiso   1.00
O132   O     0.47152   0.89376   0.92534   0.00000  Uiso   1.00
N133   N     0.38801   0.37436   0.11921   0.00000  Uiso   1.00
N134   N     0.11334   0.28197   0.66923   0.00000  Uiso   1.00
N135   N     0.73286   0.95792   0.92736   0.00000  Uiso   1.00
N136   N     0.14376   0.44510   0.09733   0.00000  Uiso   1.00
N137   N     0.86909   0.35271   0.64735   0.00000  Uiso   1.00
N138   N     0.48861   0.02867   0.90548   0.00000  Uiso   1.00
C139   C     0.90042   0.69852   0.59277   0.00000  Uiso   1.00
C140   C     0.88063   0.76426   0.53969   0.00000  Uiso   1.00
C141   C     0.72793   0.78014   0.48287   0.00000  Uiso   1.00
C142   C     0.73676   0.84288   0.44048   0.00000  Uiso   1.00
C143   C     0.68226   0.93811   0.35596   0.00000  Uiso   1.00
C144   C     0.95632   0.73881   0.66370   0.00000  Uiso   1.00
C145   C     0.86725   0.73327   0.71116   0.00000  Uiso   1.00
C146   C     0.93982   0.77458   0.77317   0.00000  Uiso   1.00
C147   C     0.00290   0.83025   0.88120   0.00000  Uiso   1.00
C148   C     0.06116   0.64951   0.59255   0.00000  Uiso   1.00
C149   C     0.06028   0.56888   0.58020   0.00000  Uiso   1.00
C150   C     0.22113   0.53500   0.58232   0.00000  Uiso   1.00
C151   C     0.44700   0.45201   0.57988   0.00000  Uiso   1.00
C152   C     0.18767   0.78171   0.61850   0.00000  Uiso   1.00
C153   C     0.03665   0.80945   0.55367   0.00000  Uiso   1.00
C154   C     0.04573   0.87218   0.51135   0.00000  Uiso   1.00
C155   C     0.89306   0.88815   0.45448   0.00000  Uiso   1.00
C156   C     0.11233   0.78400   0.67768   0.00000  Uiso   1.00
C157   C     0.18505   0.82532   0.73963   0.00000  Uiso   1.00
C158   C     0.09612   0.81985   0.78717   0.00000  Uiso   1.00
C159   C     0.21719   0.69469   0.60653   0.00000  Uiso   1.00
C160   C     0.37808   0.66093   0.60867   0.00000  Uiso   1.00
C161   C     0.37743   0.58027   0.59633   0.00000  Uiso   1.00
H162   H     0.77896   0.66334   0.58189   0.00000  Uiso   1.00
H163   H     0.60720   0.74516   0.47208   0.00000  Uiso   1.00
H164   H     0.74653   0.69830   0.70033   0.00000  Uiso   1.00
H165   H     0.93952   0.53393   0.56939   0.00000  Uiso   1.00
H166   H     0.48557   0.85581   0.35651   0.00000  Uiso   1.00
H167   H     0.77937   0.75698   0.83781   0.00000  Uiso   1.00
H168   H     0.18633   0.41038   0.56169   0.00000  Uiso   1.00
H169   H     0.30914   0.81690   0.62939   0.00000  Uiso   1.00
H170   H     0.16648   0.90714   0.52218   0.00000  Uiso   1.00
H171   H     0.30580   0.86028   0.75044   0.00000  Uiso   1.00
H172   H     0.49879   0.69591   0.61949   0.00000  Uiso   1.00
H173   H     0.93949   0.98728   0.39718   0.00000  Uiso   1.00
H174   H     0.23330   0.88845   0.87848   0.00000  Uiso   1.00
H175   H     0.64025   0.54185   0.60236   0.00000  Uiso   1.00
O176   O     0.60910   0.97816   0.30548   0.00000  Uiso   1.00
O177   O     0.99457   0.84848   0.93692   0.00000  Uiso   1.00
O178   O     0.52848   0.39376   0.57466   0.00000  Uiso   1.00
N179   N     0.61199   0.87436   0.38079   0.00000  Uiso   1.00
N180   N     0.88666   0.78197   0.83077   0.00000  Uiso   1.00
N181   N     0.26714   0.45792   0.57264   0.00000  Uiso   1.00
N182   N     0.85624   0.94510   0.40267   0.00000  Uiso   1.00
N183   N     0.13091   0.85271   0.85265   0.00000  Uiso   1.00
N184   N     0.51139   0.52867   0.59452   0.00000  Uiso   1.00
