data_job_06095
_audit_creation_date              2018-12-19
_audit_creation_method            'Materials Studio'
_symmetry_space_group_name_H-M    'P1'
_symmetry_Int_Tables_number       1
_symmetry_cell_setting            triclinic
loop_
_symmetry_equiv_pos_as_xyz
  x,y,z
_cell_length_a                    7.8628
_cell_length_b                    22.2843
_cell_length_c                    23.4328
_cell_angle_alpha                 116.5151
_cell_angle_beta                  98.4776
_cell_angle_gamma                 94.1677
loop_
_atom_site_label
_atom_site_type_symbol
_atom_site_fract_x
_atom_site_fract_y
_atom_site_fract_z
_atom_site_U_iso_or_equiv
_atom_site_adp_type
_atom_site_occupancy
C1     C     0.71863   0.27385   0.93439   0.00000  Uiso   1.00
C2     C     0.74109   0.31797   0.00769   0.00000  Uiso   1.00
C3     C     0.60986   0.32751   0.04311   0.00000  Uiso   1.00
C4     C     0.65691   0.36983   0.10973   0.00000  Uiso   1.00
C5     C     0.66559   0.43355   0.21897   0.00000  Uiso   1.00
C6     C     0.78659   0.32029   0.90803   0.00000  Uiso   1.00
C7     C     0.69363   0.33177   0.85966   0.00000  Uiso   1.00
C8     C     0.77899   0.37603   0.84238   0.00000  Uiso   1.00
C9     C     0.85836   0.44331   0.79686   0.00000  Uiso   1.00
C10    C     0.84536   0.22318   0.92535   0.00000  Uiso   1.00
C11    C     0.80183   0.15301   0.89153   0.00000  Uiso   1.00
C12    C     0.93669   0.11552   0.88882   0.00000  Uiso   1.00
C13    C     0.10731   0.03202   0.87020   0.00000  Uiso   1.00
C14    C     0.03553   0.33203   0.98970   0.00000  Uiso   1.00
C15    C     0.91322   0.34957   0.03773   0.00000  Uiso   1.00
C16    C     0.96048   0.39188   0.10431   0.00000  Uiso   1.00
C17    C     0.82935   0.40148   0.13983   0.00000  Uiso   1.00
C18    C     0.95872   0.35189   0.93807   0.00000  Uiso   1.00
C19    C     0.04425   0.39614   0.92085   0.00000  Uiso   1.00
C20    C     0.95143   0.40769   0.87247   0.00000  Uiso   1.00
C21    C     0.01750   0.25478   0.95539   0.00000  Uiso   1.00
C22    C     0.15245   0.21739   0.95273   0.00000  Uiso   1.00
C23    C     0.10913   0.14718   0.91891   0.00000  Uiso   1.00
H24    H     0.58462   0.24925   0.91100   0.00000  Uiso   1.00
H25    H     0.47666   0.30305   0.01985   0.00000  Uiso   1.00
H26    H     0.56043   0.30730   0.83642   0.00000  Uiso   1.00
H27    H     0.66862   0.12857   0.86829   0.00000  Uiso   1.00
H28    H     0.43288   0.37665   0.15377   0.00000  Uiso   1.00
H29    H     0.60952   0.38559   0.76699   0.00000  Uiso   1.00
H30    H     0.83765   0.00872   0.83419   0.00000  Uiso   1.00
H31    H     0.16955   0.35664   0.01308   0.00000  Uiso   1.00
H32    H     0.09370   0.41633   0.12754   0.00000  Uiso   1.00
H33    H     0.17745   0.42058   0.94411   0.00000  Uiso   1.00
H34    H     0.28564   0.24186   0.97598   0.00000  Uiso   1.00
H35    H     0.93368   0.46860   0.24118   0.00000  Uiso   1.00
H36    H     0.11032   0.47754   0.85439   0.00000  Uiso   1.00
H37    H     0.33845   0.10066   0.92160   0.00000  Uiso   1.00
O38    O     0.62282   0.45997   0.27092   0.00000  Uiso   1.00
O39    O     0.85457   0.47169   0.76346   0.00000  Uiso   1.00
O40    O     0.15387   0.97724   0.85164   0.00000  Uiso   1.00
N41    N     0.56116   0.39009   0.15864   0.00000  Uiso   1.00
N42    N     0.72630   0.39846   0.79702   0.00000  Uiso   1.00
N43    N     0.93959   0.04611   0.85984   0.00000  Uiso   1.00
N44    N     0.83064   0.43956   0.20567   0.00000  Uiso   1.00
N45    N     0.99577   0.44793   0.84405   0.00000  Uiso   1.00
N46    N     0.20906   0.09559   0.90687   0.00000  Uiso   1.00
C47    C     0.07856   0.05166   0.35354   0.00000  Uiso   1.00
C48    C     0.06133   0.97472   0.32572   0.00000  Uiso   1.00
C49    C     0.90681   0.93030   0.30667   0.00000  Uiso   1.00
C50    C     0.91856   0.86173   0.28245   0.00000  Uiso   1.00
C51    C     0.86740   0.74579   0.24003   0.00000  Uiso   1.00
C52    C     0.20424   0.08123   0.41912   0.00000  Uiso   1.00
C53    C     0.16987   0.12638   0.47859   0.00000  Uiso   1.00
C54    C     0.30195   0.14748   0.53298   0.00000  Uiso   1.00
C55    C     0.47270   0.19696   0.63556   0.00000  Uiso   1.00
C56    C     0.17272   0.06969   0.30953   0.00000  Uiso   1.00
C57    C     0.11187   0.10515   0.27687   0.00000  Uiso   1.00
C58    C     0.21742   0.11655   0.23901   0.00000  Uiso   1.00
C59    C     0.33922   0.14810   0.17144   0.00000  Uiso   1.00
C60    C     0.37423   0.00885   0.34439   0.00000  Uiso   1.00
C61    C     0.22193   0.95146   0.32076   0.00000  Uiso   1.00
C62    C     0.23393   0.88293   0.29655   0.00000  Uiso   1.00
C63    C     0.07944   0.83843   0.27747   0.00000  Uiso   1.00
C64    C     0.36484   0.05798   0.41415   0.00000  Uiso   1.00
C65    C     0.49700   0.07902   0.46846   0.00000  Uiso   1.00
C66    C     0.46284   0.12418   0.52800   0.00000  Uiso   1.00
C67    C     0.33331   0.04643   0.30456   0.00000  Uiso   1.00
C68    C     0.43899   0.05778   0.26675   0.00000  Uiso   1.00
C69    C     0.37831   0.09325   0.23404   0.00000  Uiso   1.00
H70    H     0.95353   0.06977   0.35742   0.00000  Uiso   1.00
H71    H     0.78255   0.94832   0.31053   0.00000  Uiso   1.00
H72    H     0.04559   0.14438   0.48242   0.00000  Uiso   1.00
H73    H     0.98759   0.12314   0.28073   0.00000  Uiso   1.00
H74    H     0.66381   0.80342   0.25638   0.00000  Uiso   1.00
H75    H     0.21846   0.21683   0.61881   0.00000  Uiso   1.00
H76    H     0.09616   0.17206   0.19352   0.00000  Uiso   1.00
H77    H     0.49927   0.99074   0.34053   0.00000  Uiso   1.00
H78    H     0.35823   0.86495   0.29271   0.00000  Uiso   1.00
H79    H     0.62126   0.06101   0.46460   0.00000  Uiso   1.00
H80    H     0.56326   0.03978   0.26291   0.00000  Uiso   1.00
H81    H     0.13105   0.73576   0.24192   0.00000  Uiso   1.00
H82    H     0.68571   0.14918   0.60435   0.00000  Uiso   1.00
H83    H     0.56340   0.10440   0.17905   0.00000  Uiso   1.00
O84    O     0.79481   0.68827   0.21802   0.00000  Uiso   1.00
O85    O     0.52250   0.23066   0.69351   0.00000  Uiso   1.00
O86    O     0.36203   0.17192   0.13553   0.00000  Uiso   1.00
N87    N     0.79313   0.80476   0.25953   0.00000  Uiso   1.00
N88    N     0.31169   0.19127   0.59838   0.00000  Uiso   1.00
N89    N     0.19736   0.14942   0.20078   0.00000  Uiso   1.00
N90    N     0.04455   0.76835   0.25174   0.00000  Uiso   1.00
N91    N     0.56310   0.15486   0.59060   0.00000  Uiso   1.00
N92    N     0.44878   0.11301   0.19299   0.00000  Uiso   1.00
C93    C     0.79249   0.63254   0.70894   0.00000  Uiso   1.00
C94    C     0.74627   0.66339   0.66332   0.00000  Uiso   1.00
C95    C     0.58256   0.67655   0.64533   0.00000  Uiso   1.00
C96    C     0.56704   0.70490   0.60309   0.00000  Uiso   1.00
C97    C     0.47348   0.75054   0.53578   0.00000  Uiso   1.00
C98    C     0.87199   0.56973   0.67070   0.00000  Uiso   1.00
C99    C     0.81400   0.50415   0.65894   0.00000  Uiso   1.00
C100   C     0.90435   0.45366   0.62292   0.00000  Uiso   1.00
C101   C     0.00605   0.35390   0.56712   0.00000  Uiso   1.00
C102   C     0.93982   0.68297   0.76331   0.00000  Uiso   1.00
C103   C     0.93888   0.71259   0.82941   0.00000  Uiso   1.00
C104   C     0.08635   0.75743   0.87136   0.00000  Uiso   1.00
C105   C     0.29336   0.83349   0.95934   0.00000  Uiso   1.00
C106   C     0.05605   0.65949   0.66592   0.00000  Uiso   1.00
C107   C     0.88943   0.67803   0.63995   0.00000  Uiso   1.00
C108   C     0.87416   0.70637   0.59773   0.00000  Uiso   1.00
C109   C     0.71046   0.71957   0.57968   0.00000  Uiso   1.00
C110   C     0.01515   0.58436   0.64733   0.00000  Uiso   1.00
C111   C     0.10561   0.53396   0.61133   0.00000  Uiso   1.00
C112   C     0.04776   0.46832   0.59951   0.00000  Uiso   1.00
C113   C     0.08298   0.69761   0.73994   0.00000  Uiso   1.00
C114   C     0.23048   0.74241   0.78180   0.00000  Uiso   1.00
C115   C     0.22977   0.77209   0.84795   0.00000  Uiso   1.00
H116   H     0.68104   0.62114   0.72713   0.00000  Uiso   1.00
H117   H     0.47180   0.66521   0.66342   0.00000  Uiso   1.00
H118   H     0.70323   0.49284   0.67703   0.00000  Uiso   1.00
H119   H     0.82808   0.70125   0.84747   0.00000  Uiso   1.00
H120   H     0.30294   0.72050   0.58246   0.00000  Uiso   1.00
H121   H     0.79095   0.35704   0.61118   0.00000  Uiso   1.00
H122   H     0.05423   0.79652   0.97059   0.00000  Uiso   1.00
H123   H     0.16752   0.67089   0.64772   0.00000  Uiso   1.00
H124   H     0.98497   0.71769   0.57965   0.00000  Uiso   1.00
H125   H     0.21639   0.54531   0.59326   0.00000  Uiso   1.00
H126   H     0.34124   0.75372   0.76370   0.00000  Uiso   1.00
H127   H     0.71944   0.76309   0.51447   0.00000  Uiso   1.00
H128   H     0.20746   0.39963   0.54319   0.00000  Uiso   1.00
H129   H     0.47073   0.83911   0.90260   0.00000  Uiso   1.00
O130   O     0.38231   0.77167   0.50510   0.00000  Uiso   1.00
O131   O     0.02259   0.29482   0.54279   0.00000  Uiso   1.00
O132   O     0.36799   0.87141   0.01433   0.00000  Uiso   1.00
N133   N     0.42602   0.72411   0.57581   0.00000  Uiso   1.00
N134   N     0.88227   0.38430   0.60265   0.00000  Uiso   1.00
N135   N     0.12843   0.79516   0.93867   0.00000  Uiso   1.00
N136   N     0.65014   0.74703   0.53922   0.00000  Uiso   1.00
N137   N     0.10639   0.40722   0.56607   0.00000  Uiso   1.00
N138   N     0.35254   0.81808   0.90209   0.00000  Uiso   1.00
C139   C     0.28137   0.72615   0.06561   0.00000  Uiso   1.00
C140   C     0.25891   0.68203   0.99231   0.00000  Uiso   1.00
C141   C     0.39014   0.67249   0.95689   0.00000  Uiso   1.00
C142   C     0.34309   0.63017   0.89027   0.00000  Uiso   1.00
C143   C     0.33441   0.56645   0.78103   0.00000  Uiso   1.00
C144   C     0.21341   0.67971   0.09197   0.00000  Uiso   1.00
C145   C     0.30637   0.66823   0.14034   0.00000  Uiso   1.00
C146   C     0.22101   0.62397   0.15762   0.00000  Uiso   1.00
C147   C     0.14164   0.55669   0.20314   0.00000  Uiso   1.00
C148   C     0.15464   0.77682   0.07465   0.00000  Uiso   1.00
C149   C     0.19817   0.84699   0.10847   0.00000  Uiso   1.00
C150   C     0.06331   0.88448   0.11118   0.00000  Uiso   1.00
C151   C     0.89269   0.96798   0.12980   0.00000  Uiso   1.00
C152   C     0.96447   0.66797   0.01030   0.00000  Uiso   1.00
C153   C     0.08678   0.65043   0.96227   0.00000  Uiso   1.00
C154   C     0.03952   0.60812   0.89569   0.00000  Uiso   1.00
C155   C     0.17065   0.59852   0.86017   0.00000  Uiso   1.00
C156   C     0.04128   0.64811   0.06193   0.00000  Uiso   1.00
C157   C     0.95575   0.60386   0.07915   0.00000  Uiso   1.00
C158   C     0.04857   0.59231   0.12753   0.00000  Uiso   1.00
C159   C     0.98250   0.74522   0.04461   0.00000  Uiso   1.00
C160   C     0.84755   0.78261   0.04727   0.00000  Uiso   1.00
C161   C     0.89087   0.85282   0.08109   0.00000  Uiso   1.00
H162   H     0.41538   0.75075   0.08900   0.00000  Uiso   1.00
H163   H     0.52334   0.69695   0.98015   0.00000  Uiso   1.00
H164   H     0.43957   0.69270   0.16358   0.00000  Uiso   1.00
H165   H     0.33138   0.87143   0.13171   0.00000  Uiso   1.00
H166   H     0.56712   0.62335   0.84623   0.00000  Uiso   1.00
H167   H     0.39048   0.61441   0.23301   0.00000  Uiso   1.00
H168   H     0.16235   0.99128   0.16581   0.00000  Uiso   1.00
H169   H     0.83045   0.64336   0.98692   0.00000  Uiso   1.00
H170   H     0.90630   0.58367   0.87246   0.00000  Uiso   1.00
H171   H     0.82255   0.57942   0.05589   0.00000  Uiso   1.00
H172   H     0.71436   0.75814   0.02402   0.00000  Uiso   1.00
H173   H     0.06632   0.53140   0.75882   0.00000  Uiso   1.00
H174   H     0.88968   0.52246   0.14561   0.00000  Uiso   1.00
H175   H     0.66155   0.89934   0.07840   0.00000  Uiso   1.00
O176   O     0.37718   0.54003   0.72908   0.00000  Uiso   1.00
O177   O     0.14543   0.52831   0.23654   0.00000  Uiso   1.00
O178   O     0.84613   0.02276   0.14836   0.00000  Uiso   1.00
N179   N     0.43884   0.60991   0.84136   0.00000  Uiso   1.00
N180   N     0.27370   0.60154   0.20298   0.00000  Uiso   1.00
N181   N     0.06041   0.95389   0.14016   0.00000  Uiso   1.00
N182   N     0.16936   0.56044   0.79433   0.00000  Uiso   1.00
N183   N     0.00423   0.55207   0.15595   0.00000  Uiso   1.00
N184   N     0.79094   0.90441   0.09313   0.00000  Uiso   1.00
C185   C     0.92144   0.94834   0.64646   0.00000  Uiso   1.00
C186   C     0.93867   0.02528   0.67428   0.00000  Uiso   1.00
C187   C     0.09319   0.06970   0.69333   0.00000  Uiso   1.00
C188   C     0.08144   0.13827   0.71755   0.00000  Uiso   1.00
C189   C     0.13260   0.25420   0.75997   0.00000  Uiso   1.00
C190   C     0.79576   0.91877   0.58088   0.00000  Uiso   1.00
C191   C     0.83013   0.87362   0.52141   0.00000  Uiso   1.00
C192   C     0.69805   0.85252   0.46702   0.00000  Uiso   1.00
C193   C     0.52730   0.80304   0.36444   0.00000  Uiso   1.00
C194   C     0.82728   0.93031   0.69047   0.00000  Uiso   1.00
C195   C     0.88813   0.89485   0.72313   0.00000  Uiso   1.00
C196   C     0.78258   0.88345   0.76099   0.00000  Uiso   1.00
C197   C     0.66078   0.85190   0.82856   0.00000  Uiso   1.00
C198   C     0.62577   0.99115   0.65561   0.00000  Uiso   1.00
C199   C     0.77807   0.04854   0.67924   0.00000  Uiso   1.00
C200   C     0.76607   0.11707   0.70345   0.00000  Uiso   1.00
C201   C     0.92056   0.16157   0.72253   0.00000  Uiso   1.00
C202   C     0.63516   0.94202   0.58585   0.00000  Uiso   1.00
C203   C     0.50300   0.92099   0.53154   0.00000  Uiso   1.00
C204   C     0.53716   0.87582   0.47200   0.00000  Uiso   1.00
C205   C     0.66669   0.95357   0.69544   0.00000  Uiso   1.00
C206   C     0.56101   0.94222   0.73325   0.00000  Uiso   1.00
C207   C     0.62169   0.90675   0.76596   0.00000  Uiso   1.00
H208   H     0.04647   0.93023   0.64258   0.00000  Uiso   1.00
H209   H     0.21745   0.05168   0.68947   0.00000  Uiso   1.00
H210   H     0.95441   0.85562   0.51758   0.00000  Uiso   1.00
H211   H     0.01241   0.87686   0.71927   0.00000  Uiso   1.00
H212   H     0.33618   0.19658   0.74362   0.00000  Uiso   1.00
H213   H     0.78154   0.78317   0.38119   0.00000  Uiso   1.00
H214   H     0.90384   0.82794   0.80648   0.00000  Uiso   1.00
H215   H     0.50073   0.00926   0.65947   0.00000  Uiso   1.00
H216   H     0.64177   0.13505   0.70729   0.00000  Uiso   1.00
H217   H     0.37874   0.93899   0.53540   0.00000  Uiso   1.00
H218   H     0.43674   0.96022   0.73709   0.00000  Uiso   1.00
H219   H     0.86895   0.26424   0.75808   0.00000  Uiso   1.00
H220   H     0.31429   0.85082   0.39565   0.00000  Uiso   1.00
H221   H     0.43660   0.89560   0.82095   0.00000  Uiso   1.00
O222   O     0.20519   0.31172   0.78198   0.00000  Uiso   1.00
O223   O     0.47750   0.76934   0.30649   0.00000  Uiso   1.00
O224   O     0.63797   0.82808   0.86447   0.00000  Uiso   1.00
N225   N     0.20687   0.19524   0.74047   0.00000  Uiso   1.00
N226   N     0.68832   0.80873   0.40162   0.00000  Uiso   1.00
N227   N     0.80264   0.85058   0.79922   0.00000  Uiso   1.00
N228   N     0.95545   0.23165   0.74826   0.00000  Uiso   1.00
N229   N     0.43690   0.84514   0.40940   0.00000  Uiso   1.00
N230   N     0.55122   0.88699   0.80701   0.00000  Uiso   1.00
C231   C     0.20751   0.36746   0.29106   0.00000  Uiso   1.00
C232   C     0.25373   0.33661   0.33668   0.00000  Uiso   1.00
C233   C     0.41744   0.32345   0.35467   0.00000  Uiso   1.00
C234   C     0.43296   0.29510   0.39691   0.00000  Uiso   1.00
C235   C     0.52652   0.24946   0.46422   0.00000  Uiso   1.00
C236   C     0.12801   0.43027   0.32930   0.00000  Uiso   1.00
C237   C     0.18600   0.49585   0.34106   0.00000  Uiso   1.00
C238   C     0.09565   0.54634   0.37708   0.00000  Uiso   1.00
C239   C     0.99395   0.64610   0.43288   0.00000  Uiso   1.00
C240   C     0.06018   0.31703   0.23669   0.00000  Uiso   1.00
C241   C     0.06112   0.28741   0.17059   0.00000  Uiso   1.00
C242   C     0.91365   0.24257   0.12864   0.00000  Uiso   1.00
C243   C     0.70664   0.16651   0.04065   0.00000  Uiso   1.00
C244   C     0.94394   0.34051   0.33408   0.00000  Uiso   1.00
C245   C     0.11057   0.32197   0.36005   0.00000  Uiso   1.00
C246   C     0.12584   0.29363   0.40227   0.00000  Uiso   1.00
C247   C     0.28954   0.28043   0.42032   0.00000  Uiso   1.00
C248   C     0.98485   0.41564   0.35267   0.00000  Uiso   1.00
C249   C     0.89439   0.46604   0.38867   0.00000  Uiso   1.00
C250   C     0.95223   0.53168   0.40049   0.00000  Uiso   1.00
C251   C     0.91702   0.30239   0.26006   0.00000  Uiso   1.00
C252   C     0.76952   0.25759   0.21820   0.00000  Uiso   1.00
C253   C     0.77023   0.22791   0.15205   0.00000  Uiso   1.00
H254   H     0.31896   0.37886   0.27287   0.00000  Uiso   1.00
H255   H     0.52820   0.33479   0.33658   0.00000  Uiso   1.00
H256   H     0.29677   0.50716   0.32297   0.00000  Uiso   1.00
H257   H     0.17192   0.29875   0.15253   0.00000  Uiso   1.00
H258   H     0.69706   0.27950   0.41754   0.00000  Uiso   1.00
H259   H     0.20905   0.64296   0.38882   0.00000  Uiso   1.00
H260   H     0.94577   0.20348   0.02941   0.00000  Uiso   1.00
H261   H     0.83248   0.32911   0.35228   0.00000  Uiso   1.00
H262   H     0.01503   0.28231   0.42035   0.00000  Uiso   1.00
H263   H     0.78361   0.45469   0.40674   0.00000  Uiso   1.00
H264   H     0.65876   0.24628   0.23630   0.00000  Uiso   1.00
H265   H     0.28056   0.23691   0.48553   0.00000  Uiso   1.00
H266   H     0.79254   0.60037   0.45681   0.00000  Uiso   1.00
H267   H     0.52927   0.16089   0.09740   0.00000  Uiso   1.00
O268   O     0.61769   0.22833   0.49490   0.00000  Uiso   1.00
O269   O     0.97741   0.70518   0.45721   0.00000  Uiso   1.00
O270   O     0.63201   0.12859   0.98567   0.00000  Uiso   1.00
N271   N     0.57398   0.27589   0.42419   0.00000  Uiso   1.00
N272   N     0.11773   0.61570   0.39735   0.00000  Uiso   1.00
N273   N     0.87157   0.20484   0.06133   0.00000  Uiso   1.00
N274   N     0.34986   0.25297   0.46078   0.00000  Uiso   1.00
N275   N     0.89361   0.59278   0.43393   0.00000  Uiso   1.00
N276   N     0.64746   0.18192   0.09791   0.00000  Uiso   1.00
