data_job_02558
_audit_creation_date              2018-12-19
_audit_creation_method            'Materials Studio'
_symmetry_space_group_name_H-M    'P1'
_symmetry_Int_Tables_number       1
_symmetry_cell_setting            triclinic
loop_
_symmetry_equiv_pos_as_xyz
  x,y,z
_cell_length_a                    14.5730
_cell_length_b                    12.7775
_cell_length_c                    25.3926
_cell_angle_alpha                 90.0000
_cell_angle_beta                  128.5066
_cell_angle_gamma                 90.0000
loop_
_atom_site_label
_atom_site_type_symbol
_atom_site_fract_x
_atom_site_fract_y
_atom_site_fract_z
_atom_site_U_iso_or_equiv
_atom_site_adp_type
_atom_site_occupancy
C1     C     0.66940   0.38036   0.17632   0.00000  Uiso   1.00
C2     C     0.61584   0.48860   0.14933   0.00000  Uiso   1.00
C3     C     0.63678   0.55467   0.11447   0.00000  Uiso   1.00
C4     C     0.57934   0.65047   0.09404   0.00000  Uiso   1.00
C5     C     0.50772   0.81421   0.05004   0.00000  Uiso   1.00
C6     C     0.73047   0.38338   0.25154   0.00000  Uiso   1.00
C7     C     0.84779   0.36098   0.30262   0.00000  Uiso   1.00
C8     C     0.88684   0.36820   0.36824   0.00000  Uiso   1.00
C9     C     0.99317   0.36851   0.48292   0.00000  Uiso   1.00
C10    C     0.56646   0.30519   0.14570   0.00000  Uiso   1.00
C11    C     0.54589   0.21702   0.10780   0.00000  Uiso   1.00
C12    C     0.44687   0.15839   0.08432   0.00000  Uiso   1.00
C13    C     0.29855   0.03729   0.03468   0.00000  Uiso   1.00
C14    C     0.53013   0.43301   0.20202   0.00000  Uiso   1.00
C15    C     0.54019   0.51719   0.16330   0.00000  Uiso   1.00
C16    C     0.48269   0.61292   0.14291   0.00000  Uiso   1.00
C17    C     0.50355   0.67912   0.10803   0.00000  Uiso   1.00
C18    C     0.65483   0.41198   0.26551   0.00000  Uiso   1.00
C19    C     0.69370   0.41922   0.33106   0.00000  Uiso   1.00
C20    C     0.81106   0.39684   0.38223   0.00000  Uiso   1.00
C21    C     0.49081   0.33378   0.15966   0.00000  Uiso   1.00
C22    C     0.39180   0.27527   0.13624   0.00000  Uiso   1.00
C23    C     0.37109   0.18703   0.09831   0.00000  Uiso   1.00
H24    H     0.72830   0.35810   0.16545   0.00000  Uiso   1.00
H25    H     0.69534   0.53252   0.10368   0.00000  Uiso   1.00
H26    H     0.90631   0.33884   0.29180   0.00000  Uiso   1.00
H27    H     0.60445   0.19492   0.09701   0.00000  Uiso   1.00
H28    H     0.62548   0.73852   0.04138   0.00000  Uiso   1.00
H29    H     0.07030   0.33011   0.43803   0.00000  Uiso   1.00
H30    H     0.43379   0.02660   0.02728   0.00000  Uiso   1.00
H31    H     0.47123   0.45527   0.21290   0.00000  Uiso   1.00
H32    H     0.42416   0.63502   0.15372   0.00000  Uiso   1.00
H33    H     0.63514   0.44135   0.34185   0.00000  Uiso   1.00
H34    H     0.33328   0.29742   0.14706   0.00000  Uiso   1.00
H35    H     0.40538   0.82172   0.08200   0.00000  Uiso   1.00
H36    H     0.85021   0.41331   0.47866   0.00000  Uiso   1.00
H37    H     0.21369   0.10980   0.06790   0.00000  Uiso   1.00
O38    O     0.48913   0.89662   0.02193   0.00000  Uiso   1.00
O39    O     0.07273   0.36079   0.54232   0.00000  Uiso   1.00
O40    O     0.23763   0.96261   0.00343   0.00000  Uiso   1.00
N41    N     0.58012   0.73342   0.05904   0.00000  Uiso   1.00
N42    N     0.99601   0.35160   0.42990   0.00000  Uiso   1.00
N43    N     0.40094   0.06783   0.04590   0.00000  Uiso   1.00
N44    N     0.46168   0.77819   0.08090   0.00000  Uiso   1.00
N45    N     0.87758   0.39637   0.45175   0.00000  Uiso   1.00
N46    N     0.28251   0.11260   0.06775   0.00000  Uiso   1.00
C47    C     0.33060   0.88036   0.32368   0.00000  Uiso   1.00
C48    C     0.38416   0.98860   0.35067   0.00000  Uiso   1.00
C49    C     0.36322   0.05467   0.38553   0.00000  Uiso   1.00
C50    C     0.42066   0.15047   0.40596   0.00000  Uiso   1.00
C51    C     0.49228   0.31421   0.44996   0.00000  Uiso   1.00
C52    C     0.26953   0.88338   0.24846   0.00000  Uiso   1.00
C53    C     0.15221   0.86098   0.19738   0.00000  Uiso   1.00
C54    C     0.11316   0.86820   0.13176   0.00000  Uiso   1.00
C55    C     0.00683   0.86851   0.01708   0.00000  Uiso   1.00
C56    C     0.43354   0.80519   0.35430   0.00000  Uiso   1.00
C57    C     0.45411   0.71702   0.39220   0.00000  Uiso   1.00
C58    C     0.55313   0.65839   0.41568   0.00000  Uiso   1.00
C59    C     0.70145   0.53729   0.46532   0.00000  Uiso   1.00
C60    C     0.46987   0.93301   0.29798   0.00000  Uiso   1.00
C61    C     0.45981   0.01719   0.33670   0.00000  Uiso   1.00
C62    C     0.51731   0.11292   0.35709   0.00000  Uiso   1.00
C63    C     0.49645   0.17912   0.39197   0.00000  Uiso   1.00
C64    C     0.34517   0.91198   0.23449   0.00000  Uiso   1.00
C65    C     0.30630   0.91922   0.16894   0.00000  Uiso   1.00
C66    C     0.18894   0.89684   0.11777   0.00000  Uiso   1.00
C67    C     0.50919   0.83378   0.34034   0.00000  Uiso   1.00
C68    C     0.60820   0.77527   0.36376   0.00000  Uiso   1.00
C69    C     0.62891   0.68703   0.40169   0.00000  Uiso   1.00
H70    H     0.27170   0.85810   0.33455   0.00000  Uiso   1.00
H71    H     0.30466   0.03252   0.39632   0.00000  Uiso   1.00
H72    H     0.09369   0.83884   0.20820   0.00000  Uiso   1.00
H73    H     0.39555   0.69492   0.40299   0.00000  Uiso   1.00
H74    H     0.37452   0.23852   0.45862   0.00000  Uiso   1.00
H75    H     0.92970   0.83011   0.06197   0.00000  Uiso   1.00
H76    H     0.56621   0.52660   0.47272   0.00000  Uiso   1.00
H77    H     0.52877   0.95527   0.28710   0.00000  Uiso   1.00
H78    H     0.57584   0.13502   0.34628   0.00000  Uiso   1.00
H79    H     0.36486   0.94135   0.15815   0.00000  Uiso   1.00
H80    H     0.66672   0.79742   0.35294   0.00000  Uiso   1.00
H81    H     0.59462   0.32172   0.41800   0.00000  Uiso   1.00
H82    H     0.14979   0.91331   0.02134   0.00000  Uiso   1.00
H83    H     0.78631   0.60980   0.43210   0.00000  Uiso   1.00
O84    O     0.51087   0.39662   0.47807   0.00000  Uiso   1.00
O85    O     0.92727   0.86079   0.95768   0.00000  Uiso   1.00
O86    O     0.76237   0.46261   0.49657   0.00000  Uiso   1.00
N87    N     0.41988   0.23342   0.44096   0.00000  Uiso   1.00
N88    N     0.00399   0.85160   0.07010   0.00000  Uiso   1.00
N89    N     0.59906   0.56783   0.45410   0.00000  Uiso   1.00
N90    N     0.53832   0.27819   0.41910   0.00000  Uiso   1.00
N91    N     0.12242   0.89637   0.04825   0.00000  Uiso   1.00
N92    N     0.71749   0.61260   0.43225   0.00000  Uiso   1.00
C93    C     0.33060   0.61964   0.82368   0.00000  Uiso   1.00
C94    C     0.38416   0.51140   0.85067   0.00000  Uiso   1.00
C95    C     0.36322   0.44533   0.88553   0.00000  Uiso   1.00
C96    C     0.42066   0.34953   0.90596   0.00000  Uiso   1.00
C97    C     0.49228   0.18579   0.94996   0.00000  Uiso   1.00
C98    C     0.26953   0.61662   0.74846   0.00000  Uiso   1.00
C99    C     0.15221   0.63902   0.69738   0.00000  Uiso   1.00
C100   C     0.11316   0.63180   0.63176   0.00000  Uiso   1.00
C101   C     0.00683   0.63149   0.51708   0.00000  Uiso   1.00
C102   C     0.43354   0.69481   0.85430   0.00000  Uiso   1.00
C103   C     0.45411   0.78298   0.89220   0.00000  Uiso   1.00
C104   C     0.55313   0.84161   0.91568   0.00000  Uiso   1.00
C105   C     0.70145   0.96271   0.96532   0.00000  Uiso   1.00
C106   C     0.46987   0.56699   0.79798   0.00000  Uiso   1.00
C107   C     0.45981   0.48281   0.83670   0.00000  Uiso   1.00
C108   C     0.51731   0.38708   0.85709   0.00000  Uiso   1.00
C109   C     0.49645   0.32088   0.89197   0.00000  Uiso   1.00
C110   C     0.34517   0.58802   0.73449   0.00000  Uiso   1.00
C111   C     0.30630   0.58078   0.66894   0.00000  Uiso   1.00
C112   C     0.18894   0.60316   0.61777   0.00000  Uiso   1.00
C113   C     0.50919   0.66622   0.84034   0.00000  Uiso   1.00
C114   C     0.60820   0.72473   0.86376   0.00000  Uiso   1.00
C115   C     0.62891   0.81297   0.90169   0.00000  Uiso   1.00
H116   H     0.27170   0.64190   0.83455   0.00000  Uiso   1.00
H117   H     0.30466   0.46748   0.89632   0.00000  Uiso   1.00
H118   H     0.09369   0.66116   0.70820   0.00000  Uiso   1.00
H119   H     0.39555   0.80508   0.90299   0.00000  Uiso   1.00
H120   H     0.37452   0.26148   0.95862   0.00000  Uiso   1.00
H121   H     0.92970   0.66989   0.56197   0.00000  Uiso   1.00
H122   H     0.56621   0.97340   0.97272   0.00000  Uiso   1.00
H123   H     0.52877   0.54473   0.78710   0.00000  Uiso   1.00
H124   H     0.57584   0.36498   0.84628   0.00000  Uiso   1.00
H125   H     0.36486   0.55865   0.65815   0.00000  Uiso   1.00
H126   H     0.66672   0.70258   0.85294   0.00000  Uiso   1.00
H127   H     0.59462   0.17828   0.91800   0.00000  Uiso   1.00
H128   H     0.14979   0.58669   0.52134   0.00000  Uiso   1.00
H129   H     0.78631   0.89020   0.93210   0.00000  Uiso   1.00
O130   O     0.51087   0.10338   0.97807   0.00000  Uiso   1.00
O131   O     0.92727   0.63921   0.45768   0.00000  Uiso   1.00
O132   O     0.76237   0.03739   0.99657   0.00000  Uiso   1.00
N133   N     0.41988   0.26658   0.94096   0.00000  Uiso   1.00
N134   N     0.00399   0.64840   0.57010   0.00000  Uiso   1.00
N135   N     0.59906   0.93217   0.95410   0.00000  Uiso   1.00
N136   N     0.53832   0.22181   0.91910   0.00000  Uiso   1.00
N137   N     0.12242   0.60363   0.54825   0.00000  Uiso   1.00
N138   N     0.71749   0.88740   0.93225   0.00000  Uiso   1.00
C139   C     0.66940   0.11964   0.67632   0.00000  Uiso   1.00
C140   C     0.61584   0.01140   0.64933   0.00000  Uiso   1.00
C141   C     0.63678   0.94533   0.61447   0.00000  Uiso   1.00
C142   C     0.57934   0.84953   0.59404   0.00000  Uiso   1.00
C143   C     0.50772   0.68579   0.55004   0.00000  Uiso   1.00
C144   C     0.73047   0.11662   0.75154   0.00000  Uiso   1.00
C145   C     0.84779   0.13902   0.80262   0.00000  Uiso   1.00
C146   C     0.88684   0.13180   0.86824   0.00000  Uiso   1.00
C147   C     0.99317   0.13149   0.98292   0.00000  Uiso   1.00
C148   C     0.56646   0.19481   0.64570   0.00000  Uiso   1.00
C149   C     0.54589   0.28298   0.60780   0.00000  Uiso   1.00
C150   C     0.44687   0.34161   0.58432   0.00000  Uiso   1.00
C151   C     0.29855   0.46271   0.53468   0.00000  Uiso   1.00
C152   C     0.53013   0.06699   0.70202   0.00000  Uiso   1.00
C153   C     0.54019   0.98281   0.66330   0.00000  Uiso   1.00
C154   C     0.48269   0.88708   0.64291   0.00000  Uiso   1.00
C155   C     0.50355   0.82088   0.60803   0.00000  Uiso   1.00
C156   C     0.65483   0.08802   0.76551   0.00000  Uiso   1.00
C157   C     0.69370   0.08078   0.83106   0.00000  Uiso   1.00
C158   C     0.81106   0.10316   0.88223   0.00000  Uiso   1.00
C159   C     0.49081   0.16622   0.65966   0.00000  Uiso   1.00
C160   C     0.39180   0.22473   0.63624   0.00000  Uiso   1.00
C161   C     0.37109   0.31297   0.59831   0.00000  Uiso   1.00
H162   H     0.72830   0.14190   0.66545   0.00000  Uiso   1.00
H163   H     0.69534   0.96748   0.60368   0.00000  Uiso   1.00
H164   H     0.90631   0.16116   0.79180   0.00000  Uiso   1.00
H165   H     0.60445   0.30508   0.59701   0.00000  Uiso   1.00
H166   H     0.62548   0.76148   0.54138   0.00000  Uiso   1.00
H167   H     0.07030   0.16989   0.93803   0.00000  Uiso   1.00
H168   H     0.43379   0.47340   0.52728   0.00000  Uiso   1.00
H169   H     0.47123   0.04473   0.71290   0.00000  Uiso   1.00
H170   H     0.42416   0.86498   0.65372   0.00000  Uiso   1.00
H171   H     0.63514   0.05865   0.84185   0.00000  Uiso   1.00
H172   H     0.33328   0.20258   0.64706   0.00000  Uiso   1.00
H173   H     0.40538   0.67828   0.58200   0.00000  Uiso   1.00
H174   H     0.85021   0.08669   0.97866   0.00000  Uiso   1.00
H175   H     0.21369   0.39020   0.56790   0.00000  Uiso   1.00
O176   O     0.48913   0.60338   0.52193   0.00000  Uiso   1.00
O177   O     0.07273   0.13921   0.04232   0.00000  Uiso   1.00
O178   O     0.23763   0.53739   0.50343   0.00000  Uiso   1.00
N179   N     0.58012   0.76658   0.55904   0.00000  Uiso   1.00
N180   N     0.99601   0.14840   0.92990   0.00000  Uiso   1.00
N181   N     0.40094   0.43217   0.54590   0.00000  Uiso   1.00
N182   N     0.46168   0.72181   0.58090   0.00000  Uiso   1.00
N183   N     0.87758   0.10363   0.95175   0.00000  Uiso   1.00
N184   N     0.28251   0.38740   0.56775   0.00000  Uiso   1.00
