data_job_00813
_audit_creation_date              2018-12-19
_audit_creation_method            'Materials Studio'
_symmetry_space_group_name_H-M    'P1'
_symmetry_Int_Tables_number       1
_symmetry_cell_setting            triclinic
loop_
_symmetry_equiv_pos_as_xyz
  x,y,z
_cell_length_a                    11.0975
_cell_length_b                    22.9259
_cell_length_c                    23.3049
_cell_angle_alpha                 90.0000
_cell_angle_beta                  90.0000
_cell_angle_gamma                 90.0000
loop_
_atom_site_label
_atom_site_type_symbol
_atom_site_fract_x
_atom_site_fract_y
_atom_site_fract_z
_atom_site_U_iso_or_equiv
_atom_site_adp_type
_atom_site_occupancy
C1     C     0.83803   0.59418   0.44207   0.00000  Uiso   1.00
C2     C     0.97178   0.58846   0.45598   0.00000  Uiso   1.00
C3     C     0.02078   0.58279   0.51048   0.00000  Uiso   1.00
C4     C     0.14528   0.57815   0.51417   0.00000  Uiso   1.00
C5     C     0.34189   0.56915   0.54324   0.00000  Uiso   1.00
C6     C     0.82501   0.65053   0.40786   0.00000  Uiso   1.00
C7     C     0.75059   0.69704   0.42190   0.00000  Uiso   1.00
C8     C     0.75153   0.74464   0.38507   0.00000  Uiso   1.00
C9     C     0.72022   0.83199   0.33941   0.00000  Uiso   1.00
C10    C     0.80911   0.54481   0.40043   0.00000  Uiso   1.00
C11    C     0.72130   0.50244   0.40822   0.00000  Uiso   1.00
C12    C     0.70884   0.46105   0.36514   0.00000  Uiso   1.00
C13    C     0.65284   0.38425   0.30795   0.00000  Uiso   1.00
C14    C     0.97201   0.59602   0.35170   0.00000  Uiso   1.00
C15    C     0.04455   0.58946   0.40689   0.00000  Uiso   1.00
C16    C     0.16901   0.58483   0.41050   0.00000  Uiso   1.00
C17    C     0.21818   0.57915   0.46500   0.00000  Uiso   1.00
C18    C     0.89778   0.65153   0.35877   0.00000  Uiso   1.00
C19    C     0.89882   0.69907   0.32192   0.00000  Uiso   1.00
C20    C     0.82443   0.74565   0.33590   0.00000  Uiso   1.00
C21    C     0.88188   0.54581   0.35135   0.00000  Uiso   1.00
C22    C     0.86954   0.50448   0.30824   0.00000  Uiso   1.00
C23    C     0.78174   0.46205   0.31596   0.00000  Uiso   1.00
H24    H     0.78138   0.59340   0.48028   0.00000  Uiso   1.00
H25    H     0.96443   0.58203   0.54846   0.00000  Uiso   1.00
H26    H     0.69428   0.69625   0.45988   0.00000  Uiso   1.00
H27    H     0.66501   0.50168   0.44621   0.00000  Uiso   1.00
H28    H     0.19948   0.56987   0.60240   0.00000  Uiso   1.00
H29    H     0.62982   0.81072   0.41563   0.00000  Uiso   1.00
H30    H     0.56809   0.40043   0.38680   0.00000  Uiso   1.00
H31    H     0.02866   0.59680   0.31348   0.00000  Uiso   1.00
H32    H     0.22530   0.58560   0.37251   0.00000  Uiso   1.00
H33    H     0.95514   0.69983   0.28394   0.00000  Uiso   1.00
H34    H     0.92587   0.50526   0.27026   0.00000  Uiso   1.00
H35    H     0.41121   0.57278   0.45959   0.00000  Uiso   1.00
H36    H     0.84154   0.81362   0.27282   0.00000  Uiso   1.00
H37    H     0.77981   0.40334   0.24399   0.00000  Uiso   1.00
O38    O     0.43024   0.56392   0.57284   0.00000  Uiso   1.00
O39    O     0.68285   0.87989   0.32779   0.00000  Uiso   1.00
O40    O     0.60186   0.34161   0.28997   0.00000  Uiso   1.00
N41    N     0.22233   0.57208   0.56069   0.00000  Uiso   1.00
N42    N     0.68974   0.79726   0.38607   0.00000  Uiso   1.00
N43    N     0.63200   0.41369   0.35911   0.00000  Uiso   1.00
N44    N     0.33625   0.57364   0.48385   0.00000  Uiso   1.00
N45    N     0.80367   0.79882   0.30923   0.00000  Uiso   1.00
N46    N     0.74593   0.41525   0.28227   0.00000  Uiso   1.00
C47    C     0.33803   0.09418   0.44207   0.00000  Uiso   1.00
C48    C     0.47178   0.08846   0.45598   0.00000  Uiso   1.00
C49    C     0.52078   0.08279   0.51048   0.00000  Uiso   1.00
C50    C     0.64528   0.07815   0.51417   0.00000  Uiso   1.00
C51    C     0.84189   0.06915   0.54324   0.00000  Uiso   1.00
C52    C     0.32501   0.15053   0.40786   0.00000  Uiso   1.00
C53    C     0.25059   0.19704   0.42190   0.00000  Uiso   1.00
C54    C     0.25153   0.24464   0.38507   0.00000  Uiso   1.00
C55    C     0.22022   0.33199   0.33941   0.00000  Uiso   1.00
C56    C     0.30911   0.04481   0.40043   0.00000  Uiso   1.00
C57    C     0.22130   0.00244   0.40822   0.00000  Uiso   1.00
C58    C     0.20884   0.96105   0.36514   0.00000  Uiso   1.00
C59    C     0.15284   0.88425   0.30795   0.00000  Uiso   1.00
C60    C     0.47201   0.09602   0.35170   0.00000  Uiso   1.00
C61    C     0.54455   0.08946   0.40689   0.00000  Uiso   1.00
C62    C     0.66901   0.08483   0.41050   0.00000  Uiso   1.00
C63    C     0.71818   0.07915   0.46500   0.00000  Uiso   1.00
C64    C     0.39778   0.15153   0.35877   0.00000  Uiso   1.00
C65    C     0.39882   0.19907   0.32192   0.00000  Uiso   1.00
C66    C     0.32443   0.24565   0.33590   0.00000  Uiso   1.00
C67    C     0.38188   0.04581   0.35135   0.00000  Uiso   1.00
C68    C     0.36954   0.00448   0.30824   0.00000  Uiso   1.00
C69    C     0.28174   0.96205   0.31596   0.00000  Uiso   1.00
H70    H     0.28138   0.09340   0.48028   0.00000  Uiso   1.00
H71    H     0.46443   0.08203   0.54846   0.00000  Uiso   1.00
H72    H     0.19428   0.19625   0.45988   0.00000  Uiso   1.00
H73    H     0.16501   0.00168   0.44621   0.00000  Uiso   1.00
H74    H     0.69948   0.06987   0.60240   0.00000  Uiso   1.00
H75    H     0.12982   0.31072   0.41563   0.00000  Uiso   1.00
H76    H     0.06809   0.90043   0.38680   0.00000  Uiso   1.00
H77    H     0.52866   0.09680   0.31348   0.00000  Uiso   1.00
H78    H     0.72530   0.08560   0.37251   0.00000  Uiso   1.00
H79    H     0.45514   0.19983   0.28394   0.00000  Uiso   1.00
H80    H     0.42587   0.00526   0.27026   0.00000  Uiso   1.00
H81    H     0.91121   0.07278   0.45959   0.00000  Uiso   1.00
H82    H     0.34154   0.31362   0.27282   0.00000  Uiso   1.00
H83    H     0.27981   0.90334   0.24399   0.00000  Uiso   1.00
O84    O     0.93024   0.06392   0.57284   0.00000  Uiso   1.00
O85    O     0.18285   0.37989   0.32779   0.00000  Uiso   1.00
O86    O     0.10186   0.84161   0.28997   0.00000  Uiso   1.00
N87    N     0.72233   0.07208   0.56069   0.00000  Uiso   1.00
N88    N     0.18974   0.29726   0.38607   0.00000  Uiso   1.00
N89    N     0.13200   0.91369   0.35911   0.00000  Uiso   1.00
N90    N     0.83625   0.07364   0.48385   0.00000  Uiso   1.00
N91    N     0.30367   0.29882   0.30923   0.00000  Uiso   1.00
N92    N     0.24593   0.91525   0.28227   0.00000  Uiso   1.00
C93    C     0.16197   0.40582   0.94207   0.00000  Uiso   1.00
C94    C     0.02822   0.41154   0.95598   0.00000  Uiso   1.00
C95    C     0.97922   0.41721   0.01048   0.00000  Uiso   1.00
C96    C     0.85472   0.42185   0.01417   0.00000  Uiso   1.00
C97    C     0.65811   0.43085   0.04324   0.00000  Uiso   1.00
C98    C     0.17499   0.34947   0.90786   0.00000  Uiso   1.00
C99    C     0.24941   0.30296   0.92190   0.00000  Uiso   1.00
C100   C     0.24847   0.25536   0.88507   0.00000  Uiso   1.00
C101   C     0.27978   0.16801   0.83941   0.00000  Uiso   1.00
C102   C     0.19089   0.45519   0.90043   0.00000  Uiso   1.00
C103   C     0.27870   0.49756   0.90822   0.00000  Uiso   1.00
C104   C     0.29116   0.53895   0.86514   0.00000  Uiso   1.00
C105   C     0.34716   0.61575   0.80795   0.00000  Uiso   1.00
C106   C     0.02799   0.40398   0.85170   0.00000  Uiso   1.00
C107   C     0.95545   0.41054   0.90689   0.00000  Uiso   1.00
C108   C     0.83099   0.41517   0.91050   0.00000  Uiso   1.00
C109   C     0.78182   0.42085   0.96500   0.00000  Uiso   1.00
C110   C     0.10222   0.34847   0.85877   0.00000  Uiso   1.00
C111   C     0.10118   0.30093   0.82192   0.00000  Uiso   1.00
C112   C     0.17557   0.25435   0.83590   0.00000  Uiso   1.00
C113   C     0.11812   0.45419   0.85135   0.00000  Uiso   1.00
C114   C     0.13046   0.49552   0.80824   0.00000  Uiso   1.00
C115   C     0.21826   0.53795   0.81596   0.00000  Uiso   1.00
H116   H     0.21862   0.40660   0.98028   0.00000  Uiso   1.00
H117   H     0.03557   0.41797   0.04846   0.00000  Uiso   1.00
H118   H     0.30572   0.30375   0.95988   0.00000  Uiso   1.00
H119   H     0.33499   0.49832   0.94621   0.00000  Uiso   1.00
H120   H     0.80052   0.43013   0.10240   0.00000  Uiso   1.00
H121   H     0.37018   0.18928   0.91563   0.00000  Uiso   1.00
H122   H     0.43191   0.59957   0.88680   0.00000  Uiso   1.00
H123   H     0.97134   0.40320   0.81348   0.00000  Uiso   1.00
H124   H     0.77470   0.41440   0.87251   0.00000  Uiso   1.00
H125   H     0.04486   0.30017   0.78394   0.00000  Uiso   1.00
H126   H     0.07413   0.49474   0.77026   0.00000  Uiso   1.00
H127   H     0.58879   0.42722   0.95959   0.00000  Uiso   1.00
H128   H     0.15846   0.18638   0.77282   0.00000  Uiso   1.00
H129   H     0.22019   0.59666   0.74399   0.00000  Uiso   1.00
O130   O     0.56976   0.43608   0.07284   0.00000  Uiso   1.00
O131   O     0.31715   0.12011   0.82779   0.00000  Uiso   1.00
O132   O     0.39814   0.65839   0.78997   0.00000  Uiso   1.00
N133   N     0.77767   0.42792   0.06069   0.00000  Uiso   1.00
N134   N     0.31026   0.20274   0.88607   0.00000  Uiso   1.00
N135   N     0.36800   0.58631   0.85911   0.00000  Uiso   1.00
N136   N     0.66375   0.42636   0.98385   0.00000  Uiso   1.00
N137   N     0.19633   0.20118   0.80923   0.00000  Uiso   1.00
N138   N     0.25407   0.58475   0.78227   0.00000  Uiso   1.00
C139   C     0.66197   0.90582   0.94207   0.00000  Uiso   1.00
C140   C     0.52822   0.91154   0.95598   0.00000  Uiso   1.00
C141   C     0.47922   0.91721   0.01048   0.00000  Uiso   1.00
C142   C     0.35472   0.92185   0.01417   0.00000  Uiso   1.00
C143   C     0.15811   0.93085   0.04324   0.00000  Uiso   1.00
C144   C     0.67499   0.84947   0.90786   0.00000  Uiso   1.00
C145   C     0.74941   0.80296   0.92190   0.00000  Uiso   1.00
C146   C     0.74847   0.75536   0.88507   0.00000  Uiso   1.00
C147   C     0.77978   0.66801   0.83941   0.00000  Uiso   1.00
C148   C     0.69089   0.95519   0.90043   0.00000  Uiso   1.00
C149   C     0.77870   0.99756   0.90822   0.00000  Uiso   1.00
C150   C     0.79116   0.03895   0.86514   0.00000  Uiso   1.00
C151   C     0.84716   0.11575   0.80795   0.00000  Uiso   1.00
C152   C     0.52799   0.90398   0.85170   0.00000  Uiso   1.00
C153   C     0.45545   0.91054   0.90689   0.00000  Uiso   1.00
C154   C     0.33099   0.91517   0.91050   0.00000  Uiso   1.00
C155   C     0.28182   0.92085   0.96500   0.00000  Uiso   1.00
C156   C     0.60222   0.84847   0.85877   0.00000  Uiso   1.00
C157   C     0.60118   0.80093   0.82192   0.00000  Uiso   1.00
C158   C     0.67557   0.75435   0.83590   0.00000  Uiso   1.00
C159   C     0.61812   0.95419   0.85135   0.00000  Uiso   1.00
C160   C     0.63046   0.99552   0.80824   0.00000  Uiso   1.00
C161   C     0.71826   0.03795   0.81596   0.00000  Uiso   1.00
H162   H     0.71862   0.90660   0.98028   0.00000  Uiso   1.00
H163   H     0.53557   0.91797   0.04846   0.00000  Uiso   1.00
H164   H     0.80572   0.80375   0.95988   0.00000  Uiso   1.00
H165   H     0.83499   0.99832   0.94621   0.00000  Uiso   1.00
H166   H     0.30052   0.93013   0.10240   0.00000  Uiso   1.00
H167   H     0.87018   0.68928   0.91563   0.00000  Uiso   1.00
H168   H     0.93191   0.09957   0.88680   0.00000  Uiso   1.00
H169   H     0.47134   0.90320   0.81348   0.00000  Uiso   1.00
H170   H     0.27470   0.91440   0.87251   0.00000  Uiso   1.00
H171   H     0.54486   0.80017   0.78394   0.00000  Uiso   1.00
H172   H     0.57413   0.99474   0.77026   0.00000  Uiso   1.00
H173   H     0.08879   0.92722   0.95959   0.00000  Uiso   1.00
H174   H     0.65846   0.68638   0.77282   0.00000  Uiso   1.00
H175   H     0.72019   0.09666   0.74399   0.00000  Uiso   1.00
O176   O     0.06976   0.93608   0.07284   0.00000  Uiso   1.00
O177   O     0.81715   0.62011   0.82779   0.00000  Uiso   1.00
O178   O     0.89814   0.15839   0.78997   0.00000  Uiso   1.00
N179   N     0.27767   0.92792   0.06069   0.00000  Uiso   1.00
N180   N     0.81026   0.70274   0.88607   0.00000  Uiso   1.00
N181   N     0.86800   0.08631   0.85911   0.00000  Uiso   1.00
N182   N     0.16375   0.92636   0.98385   0.00000  Uiso   1.00
N183   N     0.69633   0.70118   0.80923   0.00000  Uiso   1.00
N184   N     0.75407   0.08475   0.78227   0.00000  Uiso   1.00
C185   C     0.16197   0.59418   0.05793   0.00000  Uiso   1.00
C186   C     0.02822   0.58846   0.04402   0.00000  Uiso   1.00
C187   C     0.97922   0.58279   0.98952   0.00000  Uiso   1.00
C188   C     0.85472   0.57815   0.98583   0.00000  Uiso   1.00
C189   C     0.65811   0.56915   0.95676   0.00000  Uiso   1.00
C190   C     0.17499   0.65053   0.09214   0.00000  Uiso   1.00
C191   C     0.24941   0.69704   0.07810   0.00000  Uiso   1.00
C192   C     0.24847   0.74464   0.11493   0.00000  Uiso   1.00
C193   C     0.27978   0.83199   0.16059   0.00000  Uiso   1.00
C194   C     0.19089   0.54481   0.09957   0.00000  Uiso   1.00
C195   C     0.27870   0.50244   0.09178   0.00000  Uiso   1.00
C196   C     0.29116   0.46105   0.13486   0.00000  Uiso   1.00
C197   C     0.34716   0.38425   0.19205   0.00000  Uiso   1.00
C198   C     0.02799   0.59602   0.14830   0.00000  Uiso   1.00
C199   C     0.95545   0.58946   0.09311   0.00000  Uiso   1.00
C200   C     0.83099   0.58483   0.08950   0.00000  Uiso   1.00
C201   C     0.78182   0.57915   0.03500   0.00000  Uiso   1.00
C202   C     0.10222   0.65153   0.14123   0.00000  Uiso   1.00
C203   C     0.10118   0.69907   0.17808   0.00000  Uiso   1.00
C204   C     0.17557   0.74565   0.16410   0.00000  Uiso   1.00
C205   C     0.11812   0.54581   0.14865   0.00000  Uiso   1.00
C206   C     0.13046   0.50448   0.19176   0.00000  Uiso   1.00
C207   C     0.21826   0.46205   0.18404   0.00000  Uiso   1.00
H208   H     0.21862   0.59340   0.01972   0.00000  Uiso   1.00
H209   H     0.03557   0.58203   0.95154   0.00000  Uiso   1.00
H210   H     0.30572   0.69625   0.04012   0.00000  Uiso   1.00
H211   H     0.33499   0.50168   0.05379   0.00000  Uiso   1.00
H212   H     0.80052   0.56987   0.89760   0.00000  Uiso   1.00
H213   H     0.37018   0.81072   0.08437   0.00000  Uiso   1.00
H214   H     0.43191   0.40043   0.11320   0.00000  Uiso   1.00
H215   H     0.97134   0.59680   0.18652   0.00000  Uiso   1.00
H216   H     0.77470   0.58560   0.12749   0.00000  Uiso   1.00
H217   H     0.04486   0.69983   0.21606   0.00000  Uiso   1.00
H218   H     0.07413   0.50526   0.22974   0.00000  Uiso   1.00
H219   H     0.58879   0.57278   0.04041   0.00000  Uiso   1.00
H220   H     0.15846   0.81362   0.22718   0.00000  Uiso   1.00
H221   H     0.22019   0.40334   0.25601   0.00000  Uiso   1.00
O222   O     0.56976   0.56392   0.92716   0.00000  Uiso   1.00
O223   O     0.31715   0.87989   0.17221   0.00000  Uiso   1.00
O224   O     0.39814   0.34161   0.21003   0.00000  Uiso   1.00
N225   N     0.77767   0.57208   0.93931   0.00000  Uiso   1.00
N226   N     0.31026   0.79726   0.11393   0.00000  Uiso   1.00
N227   N     0.36800   0.41369   0.14089   0.00000  Uiso   1.00
N228   N     0.66375   0.57364   0.01615   0.00000  Uiso   1.00
N229   N     0.19633   0.79882   0.19077   0.00000  Uiso   1.00
N230   N     0.25407   0.41525   0.21773   0.00000  Uiso   1.00
C231   C     0.66197   0.09418   0.05793   0.00000  Uiso   1.00
C232   C     0.52822   0.08846   0.04402   0.00000  Uiso   1.00
C233   C     0.47922   0.08279   0.98952   0.00000  Uiso   1.00
C234   C     0.35472   0.07815   0.98583   0.00000  Uiso   1.00
C235   C     0.15811   0.06915   0.95676   0.00000  Uiso   1.00
C236   C     0.67499   0.15053   0.09214   0.00000  Uiso   1.00
C237   C     0.74941   0.19704   0.07810   0.00000  Uiso   1.00
C238   C     0.74847   0.24464   0.11493   0.00000  Uiso   1.00
C239   C     0.77978   0.33199   0.16059   0.00000  Uiso   1.00
C240   C     0.69089   0.04481   0.09957   0.00000  Uiso   1.00
C241   C     0.77870   0.00244   0.09178   0.00000  Uiso   1.00
C242   C     0.79116   0.96105   0.13486   0.00000  Uiso   1.00
C243   C     0.84716   0.88425   0.19205   0.00000  Uiso   1.00
C244   C     0.52799   0.09602   0.14830   0.00000  Uiso   1.00
C245   C     0.45545   0.08946   0.09311   0.00000  Uiso   1.00
C246   C     0.33099   0.08483   0.08950   0.00000  Uiso   1.00
C247   C     0.28182   0.07915   0.03500   0.00000  Uiso   1.00
C248   C     0.60222   0.15153   0.14123   0.00000  Uiso   1.00
C249   C     0.60118   0.19907   0.17808   0.00000  Uiso   1.00
C250   C     0.67557   0.24565   0.16410   0.00000  Uiso   1.00
C251   C     0.61812   0.04581   0.14865   0.00000  Uiso   1.00
C252   C     0.63046   0.00448   0.19176   0.00000  Uiso   1.00
C253   C     0.71826   0.96205   0.18404   0.00000  Uiso   1.00
H254   H     0.71862   0.09340   0.01972   0.00000  Uiso   1.00
H255   H     0.53557   0.08203   0.95154   0.00000  Uiso   1.00
H256   H     0.80572   0.19625   0.04012   0.00000  Uiso   1.00
H257   H     0.83499   0.00168   0.05379   0.00000  Uiso   1.00
H258   H     0.30052   0.06987   0.89760   0.00000  Uiso   1.00
H259   H     0.87018   0.31072   0.08437   0.00000  Uiso   1.00
H260   H     0.93191   0.90043   0.11320   0.00000  Uiso   1.00
H261   H     0.47134   0.09680   0.18652   0.00000  Uiso   1.00
H262   H     0.27470   0.08560   0.12749   0.00000  Uiso   1.00
H263   H     0.54486   0.19983   0.21606   0.00000  Uiso   1.00
H264   H     0.57413   0.00526   0.22974   0.00000  Uiso   1.00
H265   H     0.08879   0.07278   0.04041   0.00000  Uiso   1.00
H266   H     0.65846   0.31362   0.22718   0.00000  Uiso   1.00
H267   H     0.72019   0.90334   0.25601   0.00000  Uiso   1.00
O268   O     0.06976   0.06392   0.92716   0.00000  Uiso   1.00
O269   O     0.81715   0.37989   0.17221   0.00000  Uiso   1.00
O270   O     0.89814   0.84161   0.21003   0.00000  Uiso   1.00
N271   N     0.27767   0.07208   0.93931   0.00000  Uiso   1.00
N272   N     0.81026   0.29726   0.11393   0.00000  Uiso   1.00
N273   N     0.86800   0.91369   0.14089   0.00000  Uiso   1.00
N274   N     0.16375   0.07364   0.01615   0.00000  Uiso   1.00
N275   N     0.69633   0.29882   0.19077   0.00000  Uiso   1.00
N276   N     0.75407   0.91525   0.21773   0.00000  Uiso   1.00
C277   C     0.83803   0.40582   0.55793   0.00000  Uiso   1.00
C278   C     0.97178   0.41154   0.54402   0.00000  Uiso   1.00
C279   C     0.02078   0.41721   0.48952   0.00000  Uiso   1.00
C280   C     0.14528   0.42185   0.48583   0.00000  Uiso   1.00
C281   C     0.34189   0.43085   0.45676   0.00000  Uiso   1.00
C282   C     0.82501   0.34947   0.59214   0.00000  Uiso   1.00
C283   C     0.75059   0.30296   0.57810   0.00000  Uiso   1.00
C284   C     0.75153   0.25536   0.61493   0.00000  Uiso   1.00
C285   C     0.72022   0.16801   0.66059   0.00000  Uiso   1.00
C286   C     0.80911   0.45519   0.59957   0.00000  Uiso   1.00
C287   C     0.72130   0.49756   0.59178   0.00000  Uiso   1.00
C288   C     0.70884   0.53895   0.63486   0.00000  Uiso   1.00
C289   C     0.65284   0.61575   0.69205   0.00000  Uiso   1.00
C290   C     0.97201   0.40398   0.64830   0.00000  Uiso   1.00
C291   C     0.04455   0.41054   0.59311   0.00000  Uiso   1.00
C292   C     0.16901   0.41517   0.58950   0.00000  Uiso   1.00
C293   C     0.21818   0.42085   0.53500   0.00000  Uiso   1.00
C294   C     0.89778   0.34847   0.64123   0.00000  Uiso   1.00
C295   C     0.89882   0.30093   0.67808   0.00000  Uiso   1.00
C296   C     0.82443   0.25435   0.66410   0.00000  Uiso   1.00
C297   C     0.88188   0.45419   0.64865   0.00000  Uiso   1.00
C298   C     0.86954   0.49552   0.69176   0.00000  Uiso   1.00
C299   C     0.78174   0.53795   0.68404   0.00000  Uiso   1.00
H300   H     0.78138   0.40660   0.51972   0.00000  Uiso   1.00
H301   H     0.96443   0.41797   0.45154   0.00000  Uiso   1.00
H302   H     0.69428   0.30375   0.54012   0.00000  Uiso   1.00
H303   H     0.66501   0.49832   0.55379   0.00000  Uiso   1.00
H304   H     0.19948   0.43013   0.39760   0.00000  Uiso   1.00
H305   H     0.62982   0.18928   0.58437   0.00000  Uiso   1.00
H306   H     0.56809   0.59957   0.61320   0.00000  Uiso   1.00
H307   H     0.02866   0.40320   0.68652   0.00000  Uiso   1.00
H308   H     0.22530   0.41440   0.62749   0.00000  Uiso   1.00
H309   H     0.95514   0.30017   0.71606   0.00000  Uiso   1.00
H310   H     0.92587   0.49474   0.72974   0.00000  Uiso   1.00
H311   H     0.41121   0.42722   0.54041   0.00000  Uiso   1.00
H312   H     0.84154   0.18638   0.72718   0.00000  Uiso   1.00
H313   H     0.77981   0.59666   0.75601   0.00000  Uiso   1.00
O314   O     0.43024   0.43608   0.42716   0.00000  Uiso   1.00
O315   O     0.68285   0.12011   0.67221   0.00000  Uiso   1.00
O316   O     0.60186   0.65839   0.71003   0.00000  Uiso   1.00
N317   N     0.22233   0.42792   0.43931   0.00000  Uiso   1.00
N318   N     0.68974   0.20274   0.61393   0.00000  Uiso   1.00
N319   N     0.63200   0.58631   0.64089   0.00000  Uiso   1.00
N320   N     0.33625   0.42636   0.51615   0.00000  Uiso   1.00
N321   N     0.80367   0.20118   0.69077   0.00000  Uiso   1.00
N322   N     0.74593   0.58475   0.71773   0.00000  Uiso   1.00
C323   C     0.33803   0.90582   0.55793   0.00000  Uiso   1.00
C324   C     0.47178   0.91154   0.54402   0.00000  Uiso   1.00
C325   C     0.52078   0.91721   0.48952   0.00000  Uiso   1.00
C326   C     0.64528   0.92185   0.48583   0.00000  Uiso   1.00
C327   C     0.84189   0.93085   0.45676   0.00000  Uiso   1.00
C328   C     0.32501   0.84947   0.59214   0.00000  Uiso   1.00
C329   C     0.25059   0.80296   0.57810   0.00000  Uiso   1.00
C330   C     0.25153   0.75536   0.61493   0.00000  Uiso   1.00
C331   C     0.22022   0.66801   0.66059   0.00000  Uiso   1.00
C332   C     0.30911   0.95519   0.59957   0.00000  Uiso   1.00
C333   C     0.22130   0.99756   0.59178   0.00000  Uiso   1.00
C334   C     0.20884   0.03895   0.63486   0.00000  Uiso   1.00
C335   C     0.15284   0.11575   0.69205   0.00000  Uiso   1.00
C336   C     0.47201   0.90398   0.64830   0.00000  Uiso   1.00
C337   C     0.54455   0.91054   0.59311   0.00000  Uiso   1.00
C338   C     0.66901   0.91517   0.58950   0.00000  Uiso   1.00
C339   C     0.71818   0.92085   0.53500   0.00000  Uiso   1.00
C340   C     0.39778   0.84847   0.64123   0.00000  Uiso   1.00
C341   C     0.39882   0.80093   0.67808   0.00000  Uiso   1.00
C342   C     0.32443   0.75435   0.66410   0.00000  Uiso   1.00
C343   C     0.38188   0.95419   0.64865   0.00000  Uiso   1.00
C344   C     0.36954   0.99552   0.69176   0.00000  Uiso   1.00
C345   C     0.28174   0.03795   0.68404   0.00000  Uiso   1.00
H346   H     0.28138   0.90660   0.51972   0.00000  Uiso   1.00
H347   H     0.46443   0.91797   0.45154   0.00000  Uiso   1.00
H348   H     0.19428   0.80375   0.54012   0.00000  Uiso   1.00
H349   H     0.16501   0.99832   0.55379   0.00000  Uiso   1.00
H350   H     0.69948   0.93013   0.39760   0.00000  Uiso   1.00
H351   H     0.12982   0.68928   0.58437   0.00000  Uiso   1.00
H352   H     0.06809   0.09957   0.61320   0.00000  Uiso   1.00
H353   H     0.52866   0.90320   0.68652   0.00000  Uiso   1.00
H354   H     0.72530   0.91440   0.62749   0.00000  Uiso   1.00
H355   H     0.45514   0.80017   0.71606   0.00000  Uiso   1.00
H356   H     0.42587   0.99474   0.72974   0.00000  Uiso   1.00
H357   H     0.91121   0.92722   0.54041   0.00000  Uiso   1.00
H358   H     0.34154   0.68638   0.72718   0.00000  Uiso   1.00
H359   H     0.27981   0.09666   0.75601   0.00000  Uiso   1.00
O360   O     0.93024   0.93608   0.42716   0.00000  Uiso   1.00
O361   O     0.18285   0.62011   0.67221   0.00000  Uiso   1.00
O362   O     0.10186   0.15839   0.71003   0.00000  Uiso   1.00
N363   N     0.72233   0.92792   0.43931   0.00000  Uiso   1.00
N364   N     0.18974   0.70274   0.61393   0.00000  Uiso   1.00
N365   N     0.13200   0.08631   0.64089   0.00000  Uiso   1.00
N366   N     0.83625   0.92636   0.51615   0.00000  Uiso   1.00
N367   N     0.30367   0.70118   0.69077   0.00000  Uiso   1.00
N368   N     0.24593   0.08475   0.71773   0.00000  Uiso   1.00
