data_job_01493
_audit_creation_date              2018-12-19
_audit_creation_method            'Materials Studio'
_symmetry_space_group_name_H-M    'P1'
_symmetry_Int_Tables_number       1
_symmetry_cell_setting            triclinic
loop_
_symmetry_equiv_pos_as_xyz
  x,y,z
_cell_length_a                    27.2649
_cell_length_b                    8.2608
_cell_length_c                    20.1558
_cell_angle_alpha                 90.0000
_cell_angle_beta                  148.8822
_cell_angle_gamma                 90.0000
loop_
_atom_site_label
_atom_site_type_symbol
_atom_site_fract_x
_atom_site_fract_y
_atom_site_fract_z
_atom_site_U_iso_or_equiv
_atom_site_adp_type
_atom_site_occupancy
C1     C     0.76164   0.41701   0.78568   0.00000  Uiso   1.00
C2     C     0.85356   0.40052   0.93149   0.00000  Uiso   1.00
C3     C     0.91928   0.52278   0.01849   0.00000  Uiso   1.00
C4     C     0.99884   0.48336   0.14791   0.00000  Uiso   1.00
C5     C     0.13957   0.48148   0.36810   0.00000  Uiso   1.00
C6     C     0.76589   0.28813   0.73652   0.00000  Uiso   1.00
C7     C     0.75789   0.31589   0.65958   0.00000  Uiso   1.00
C8     C     0.76364   0.18186   0.62486   0.00000  Uiso   1.00
C9     C     0.76819   0.00547   0.54228   0.00000  Uiso   1.00
C10    C     0.68221   0.36544   0.74052   0.00000  Uiso   1.00
C11    C     0.60384   0.45818   0.66692   0.00000  Uiso   1.00
C12    C     0.53912   0.38922   0.63555   0.00000  Uiso   1.00
C13    C     0.41374   0.33286   0.55919   0.00000  Uiso   1.00
C14    C     0.78605   0.12961   0.86081   0.00000  Uiso   1.00
C15    C     0.86681   0.24441   0.97229   0.00000  Uiso   1.00
C16    C     0.94628   0.20480   0.10162   0.00000  Uiso   1.00
C17    C     0.01212   0.32698   0.18880   0.00000  Uiso   1.00
C18    C     0.77914   0.13203   0.77732   0.00000  Uiso   1.00
C19    C     0.78489   0.99792   0.74270   0.00000  Uiso   1.00
C20    C     0.77692   0.02547   0.66574   0.00000  Uiso   1.00
C21    C     0.69546   0.20933   0.78133   0.00000  Uiso   1.00
C22    C     0.63085   0.14020   0.75006   0.00000  Uiso   1.00
C23    C     0.55239   0.23283   0.67643   0.00000  Uiso   1.00
H24    H     0.75132   0.53854   0.75390   0.00000  Uiso   1.00
H25    H     0.90900   0.64357   0.98687   0.00000  Uiso   1.00
H26    H     0.74763   0.43671   0.62800   0.00000  Uiso   1.00
H27    H     0.59360   0.57898   0.63536   0.00000  Uiso   1.00
H28    H     0.08969   0.69115   0.26315   0.00000  Uiso   1.00
H29    H     0.74938   0.25497   0.50643   0.00000  Uiso   1.00
H30    H     0.42459   0.55497   0.52193   0.00000  Uiso   1.00
H31    H     0.79637   0.00807   0.89258   0.00000  Uiso   1.00
H32    H     0.95652   0.08399   0.13317   0.00000  Uiso   1.00
H33    H     0.79515   0.87713   0.77430   0.00000  Uiso   1.00
H34    H     0.64112   0.01940   0.78165   0.00000  Uiso   1.00
H35    H     0.12826   0.23697   0.38189   0.00000  Uiso   1.00
H36    H     0.78795   0.80079   0.62516   0.00000  Uiso   1.00
H37    H     0.46316   0.10079   0.64067   0.00000  Uiso   1.00
O38    O     0.21353   0.52355   0.47828   0.00000  Uiso   1.00
O39    O     0.76705   0.95131   0.48547   0.00000  Uiso   1.00
O40    O     0.34093   0.34491   0.50582   0.00000  Uiso   1.00
N41    N     0.07678   0.57385   0.25808   0.00000  Uiso   1.00
N42    N     0.75863   0.16605   0.55061   0.00000  Uiso   1.00
N43    N     0.45496   0.44651   0.56507   0.00000  Uiso   1.00
N44    N     0.09753   0.32946   0.32197   0.00000  Uiso   1.00
N45    N     0.77938   0.92166   0.61450   0.00000  Uiso   1.00
N46    N     0.47571   0.20212   0.62896   0.00000  Uiso   1.00
C47    C     0.23836   0.91701   0.71432   0.00000  Uiso   1.00
C48    C     0.14644   0.90052   0.56851   0.00000  Uiso   1.00
C49    C     0.08072   0.02278   0.48151   0.00000  Uiso   1.00
C50    C     0.00116   0.98336   0.35209   0.00000  Uiso   1.00
C51    C     0.86043   0.98148   0.13190   0.00000  Uiso   1.00
C52    C     0.23411   0.78813   0.76348   0.00000  Uiso   1.00
C53    C     0.24211   0.81589   0.84042   0.00000  Uiso   1.00
C54    C     0.23636   0.68186   0.87514   0.00000  Uiso   1.00
C55    C     0.23181   0.50547   0.95772   0.00000  Uiso   1.00
C56    C     0.31779   0.86544   0.75948   0.00000  Uiso   1.00
C57    C     0.39616   0.95818   0.83308   0.00000  Uiso   1.00
C58    C     0.46088   0.88922   0.86445   0.00000  Uiso   1.00
C59    C     0.58626   0.83286   0.94081   0.00000  Uiso   1.00
C60    C     0.21395   0.62961   0.63919   0.00000  Uiso   1.00
C61    C     0.13319   0.74441   0.52771   0.00000  Uiso   1.00
C62    C     0.05372   0.70480   0.39838   0.00000  Uiso   1.00
C63    C     0.98788   0.82698   0.31120   0.00000  Uiso   1.00
C64    C     0.22086   0.63203   0.72268   0.00000  Uiso   1.00
C65    C     0.21511   0.49792   0.75730   0.00000  Uiso   1.00
C66    C     0.22308   0.52547   0.83426   0.00000  Uiso   1.00
C67    C     0.30454   0.70933   0.71867   0.00000  Uiso   1.00
C68    C     0.36915   0.64020   0.74994   0.00000  Uiso   1.00
C69    C     0.44761   0.73283   0.82357   0.00000  Uiso   1.00
H70    H     0.24868   0.03854   0.74610   0.00000  Uiso   1.00
H71    H     0.09100   0.14357   0.51313   0.00000  Uiso   1.00
H72    H     0.25237   0.93671   0.87200   0.00000  Uiso   1.00
H73    H     0.40640   0.07898   0.86464   0.00000  Uiso   1.00
H74    H     0.91031   0.19115   0.23685   0.00000  Uiso   1.00
H75    H     0.25062   0.75497   0.99357   0.00000  Uiso   1.00
H76    H     0.57541   0.05497   0.97807   0.00000  Uiso   1.00
H77    H     0.20363   0.50807   0.60742   0.00000  Uiso   1.00
H78    H     0.04348   0.58399   0.36683   0.00000  Uiso   1.00
H79    H     0.20485   0.37713   0.72570   0.00000  Uiso   1.00
H80    H     0.35888   0.51940   0.71835   0.00000  Uiso   1.00
H81    H     0.87174   0.73697   0.11811   0.00000  Uiso   1.00
H82    H     0.21205   0.30079   0.87484   0.00000  Uiso   1.00
H83    H     0.53684   0.60079   0.85933   0.00000  Uiso   1.00
O84    O     0.78647   0.02355   0.02172   0.00000  Uiso   1.00
O85    O     0.23295   0.45131   0.01453   0.00000  Uiso   1.00
O86    O     0.65907   0.84491   0.99418   0.00000  Uiso   1.00
N87    N     0.92322   0.07385   0.24192   0.00000  Uiso   1.00
N88    N     0.24137   0.66605   0.94939   0.00000  Uiso   1.00
N89    N     0.54504   0.94651   0.93493   0.00000  Uiso   1.00
N90    N     0.90247   0.82946   0.17803   0.00000  Uiso   1.00
N91    N     0.22062   0.42166   0.88550   0.00000  Uiso   1.00
N92    N     0.52429   0.70212   0.87104   0.00000  Uiso   1.00
C93    C     0.23836   0.58299   0.21432   0.00000  Uiso   1.00
C94    C     0.14644   0.59948   0.06851   0.00000  Uiso   1.00
C95    C     0.08072   0.47722   0.98151   0.00000  Uiso   1.00
C96    C     0.00116   0.51664   0.85209   0.00000  Uiso   1.00
C97    C     0.86043   0.51852   0.63190   0.00000  Uiso   1.00
C98    C     0.23411   0.71187   0.26348   0.00000  Uiso   1.00
C99    C     0.24211   0.68411   0.34042   0.00000  Uiso   1.00
C100   C     0.23636   0.81814   0.37514   0.00000  Uiso   1.00
C101   C     0.23181   0.99453   0.45772   0.00000  Uiso   1.00
C102   C     0.31779   0.63456   0.25948   0.00000  Uiso   1.00
C103   C     0.39616   0.54182   0.33308   0.00000  Uiso   1.00
C104   C     0.46088   0.61078   0.36445   0.00000  Uiso   1.00
C105   C     0.58626   0.66714   0.44081   0.00000  Uiso   1.00
C106   C     0.21395   0.87039   0.13919   0.00000  Uiso   1.00
C107   C     0.13319   0.75559   0.02771   0.00000  Uiso   1.00
C108   C     0.05372   0.79520   0.89838   0.00000  Uiso   1.00
C109   C     0.98788   0.67302   0.81120   0.00000  Uiso   1.00
C110   C     0.22086   0.86797   0.22268   0.00000  Uiso   1.00
C111   C     0.21511   0.00208   0.25730   0.00000  Uiso   1.00
C112   C     0.22308   0.97453   0.33426   0.00000  Uiso   1.00
C113   C     0.30454   0.79067   0.21867   0.00000  Uiso   1.00
C114   C     0.36915   0.85980   0.24994   0.00000  Uiso   1.00
C115   C     0.44761   0.76717   0.32357   0.00000  Uiso   1.00
H116   H     0.24868   0.46146   0.24610   0.00000  Uiso   1.00
H117   H     0.09100   0.35643   0.01313   0.00000  Uiso   1.00
H118   H     0.25237   0.56329   0.37200   0.00000  Uiso   1.00
H119   H     0.40640   0.42102   0.36464   0.00000  Uiso   1.00
H120   H     0.91031   0.30885   0.73685   0.00000  Uiso   1.00
H121   H     0.25062   0.74503   0.49357   0.00000  Uiso   1.00
H122   H     0.57541   0.44503   0.47807   0.00000  Uiso   1.00
H123   H     0.20363   0.99193   0.10742   0.00000  Uiso   1.00
H124   H     0.04348   0.91601   0.86683   0.00000  Uiso   1.00
H125   H     0.20485   0.12287   0.22570   0.00000  Uiso   1.00
H126   H     0.35888   0.98060   0.21835   0.00000  Uiso   1.00
H127   H     0.87174   0.76303   0.61811   0.00000  Uiso   1.00
H128   H     0.21205   0.19921   0.37484   0.00000  Uiso   1.00
H129   H     0.53684   0.89921   0.35933   0.00000  Uiso   1.00
O130   O     0.78647   0.47645   0.52172   0.00000  Uiso   1.00
O131   O     0.23295   0.04869   0.51453   0.00000  Uiso   1.00
O132   O     0.65907   0.65509   0.49418   0.00000  Uiso   1.00
N133   N     0.92322   0.42615   0.74192   0.00000  Uiso   1.00
N134   N     0.24137   0.83395   0.44939   0.00000  Uiso   1.00
N135   N     0.54504   0.55349   0.43493   0.00000  Uiso   1.00
N136   N     0.90247   0.67054   0.67803   0.00000  Uiso   1.00
N137   N     0.22062   0.07834   0.38550   0.00000  Uiso   1.00
N138   N     0.52429   0.79788   0.37104   0.00000  Uiso   1.00
C139   C     0.76164   0.08299   0.28568   0.00000  Uiso   1.00
C140   C     0.85356   0.09948   0.43149   0.00000  Uiso   1.00
C141   C     0.91928   0.97722   0.51849   0.00000  Uiso   1.00
C142   C     0.99884   0.01664   0.64791   0.00000  Uiso   1.00
C143   C     0.13957   0.01852   0.86810   0.00000  Uiso   1.00
C144   C     0.76589   0.21187   0.23652   0.00000  Uiso   1.00
C145   C     0.75789   0.18411   0.15958   0.00000  Uiso   1.00
C146   C     0.76364   0.31814   0.12486   0.00000  Uiso   1.00
C147   C     0.76819   0.49453   0.04228   0.00000  Uiso   1.00
C148   C     0.68221   0.13456   0.24052   0.00000  Uiso   1.00
C149   C     0.60384   0.04182   0.16692   0.00000  Uiso   1.00
C150   C     0.53912   0.11078   0.13555   0.00000  Uiso   1.00
C151   C     0.41374   0.16714   0.05919   0.00000  Uiso   1.00
C152   C     0.78605   0.37039   0.36081   0.00000  Uiso   1.00
C153   C     0.86681   0.25559   0.47229   0.00000  Uiso   1.00
C154   C     0.94628   0.29520   0.60162   0.00000  Uiso   1.00
C155   C     0.01212   0.17302   0.68880   0.00000  Uiso   1.00
C156   C     0.77914   0.36797   0.27732   0.00000  Uiso   1.00
C157   C     0.78489   0.50208   0.24270   0.00000  Uiso   1.00
C158   C     0.77692   0.47453   0.16574   0.00000  Uiso   1.00
C159   C     0.69546   0.29067   0.28133   0.00000  Uiso   1.00
C160   C     0.63085   0.35980   0.25006   0.00000  Uiso   1.00
C161   C     0.55239   0.26717   0.17643   0.00000  Uiso   1.00
H162   H     0.75132   0.96146   0.25390   0.00000  Uiso   1.00
H163   H     0.90900   0.85643   0.48687   0.00000  Uiso   1.00
H164   H     0.74763   0.06329   0.12800   0.00000  Uiso   1.00
H165   H     0.59360   0.92102   0.13536   0.00000  Uiso   1.00
H166   H     0.08969   0.80885   0.76315   0.00000  Uiso   1.00
H167   H     0.74938   0.24503   0.00643   0.00000  Uiso   1.00
H168   H     0.42459   0.94503   0.02193   0.00000  Uiso   1.00
H169   H     0.79637   0.49193   0.39258   0.00000  Uiso   1.00
H170   H     0.95652   0.41601   0.63317   0.00000  Uiso   1.00
H171   H     0.79515   0.62287   0.27430   0.00000  Uiso   1.00
H172   H     0.64112   0.48060   0.28165   0.00000  Uiso   1.00
H173   H     0.12826   0.26303   0.88189   0.00000  Uiso   1.00
H174   H     0.78795   0.69921   0.12516   0.00000  Uiso   1.00
H175   H     0.46316   0.39921   0.14067   0.00000  Uiso   1.00
O176   O     0.21353   0.97645   0.97828   0.00000  Uiso   1.00
O177   O     0.76705   0.54869   0.98547   0.00000  Uiso   1.00
O178   O     0.34093   0.15509   0.00582   0.00000  Uiso   1.00
N179   N     0.07678   0.92615   0.75808   0.00000  Uiso   1.00
N180   N     0.75863   0.33395   0.05061   0.00000  Uiso   1.00
N181   N     0.45496   0.05349   0.06507   0.00000  Uiso   1.00
N182   N     0.09753   0.17054   0.82197   0.00000  Uiso   1.00
N183   N     0.77938   0.57834   0.11450   0.00000  Uiso   1.00
N184   N     0.47571   0.29788   0.12896   0.00000  Uiso   1.00
