data_job_07022
_audit_creation_date              2018-12-19
_audit_creation_method            'Materials Studio'
_symmetry_space_group_name_H-M    'P1'
_symmetry_Int_Tables_number       1
_symmetry_cell_setting            triclinic
loop_
_symmetry_equiv_pos_as_xyz
  x,y,z
_cell_length_a                    21.7845
_cell_length_b                    22.8530
_cell_length_c                    23.7218
_cell_angle_alpha                 61.7268
_cell_angle_beta                  66.4848
_cell_angle_gamma                 63.4756
loop_
_atom_site_label
_atom_site_type_symbol
_atom_site_fract_x
_atom_site_fract_y
_atom_site_fract_z
_atom_site_U_iso_or_equiv
_atom_site_adp_type
_atom_site_occupancy
C1     C     0.04174   0.54429   0.61228   0.00000  Uiso   1.00
C2     C     0.05132   0.58206   0.53791   0.00000  Uiso   1.00
C3     C     0.99830   0.61563   0.50421   0.00000  Uiso   1.00
C4     C     0.01781   0.64708   0.43620   0.00000  Uiso   1.00
C5     C     0.02204   0.70602   0.32575   0.00000  Uiso   1.00
C6     C     0.09262   0.46973   0.62271   0.00000  Uiso   1.00
C7     C     0.07432   0.40885   0.66033   0.00000  Uiso   1.00
C8     C     0.12862   0.34575   0.66370   0.00000  Uiso   1.00
C9     C     0.19698   0.23030   0.68495   0.00000  Uiso   1.00
C10    C     0.06964   0.57844   0.63449   0.00000  Uiso   1.00
C11    C     0.03203   0.60894   0.68203   0.00000  Uiso   1.00
C12    C     0.06698   0.63734   0.69533   0.00000  Uiso   1.00
C13    C     0.09966   0.69067   0.73487   0.00000  Uiso   1.00
C14    C     0.17069   0.54047   0.55140   0.00000  Uiso   1.00
C15    C     0.12136   0.57998   0.50484   0.00000  Uiso   1.00
C16    C     0.14097   0.61140   0.43686   0.00000  Uiso   1.00
C17    C     0.08798   0.64500   0.40307   0.00000  Uiso   1.00
C18    C     0.16266   0.46766   0.58964   0.00000  Uiso   1.00
C19    C     0.21699   0.40463   0.59297   0.00000  Uiso   1.00
C20    C     0.19878   0.34367   0.63058   0.00000  Uiso   1.00
C21    C     0.13968   0.57636   0.60142   0.00000  Uiso   1.00
C22    C     0.17470   0.60472   0.61466   0.00000  Uiso   1.00
C23    C     0.13715   0.63526   0.66221   0.00000  Uiso   1.00
H24    H     0.98721   0.54590   0.63802   0.00000  Uiso   1.00
H25    H     0.94410   0.61722   0.52982   0.00000  Uiso   1.00
H26    H     0.02012   0.41048   0.68592   0.00000  Uiso   1.00
H27    H     0.97783   0.61054   0.70760   0.00000  Uiso   1.00
H28    H     0.92720   0.69535   0.39528   0.00000  Uiso   1.00
H29    H     0.08749   0.25943   0.72443   0.00000  Uiso   1.00
H30    H     0.99832   0.68129   0.77017   0.00000  Uiso   1.00
H31    H     0.22522   0.53885   0.52565   0.00000  Uiso   1.00
H32    H     0.19517   0.60978   0.41128   0.00000  Uiso   1.00
H33    H     0.27119   0.40304   0.56738   0.00000  Uiso   1.00
H34    H     0.22890   0.60310   0.58906   0.00000  Uiso   1.00
H35    H     0.13098   0.68931   0.29906   0.00000  Uiso   1.00
H36    H     0.29127   0.25339   0.62822   0.00000  Uiso   1.00
H37    H     0.20210   0.67525   0.67395   0.00000  Uiso   1.00
O38    O     0.00503   0.73910   0.27396   0.00000  Uiso   1.00
O39    O     0.21533   0.16719   0.70580   0.00000  Uiso   1.00
O40    O     0.09834   0.72066   0.76581   0.00000  Uiso   1.00
N41    N     0.97928   0.68420   0.38833   0.00000  Uiso   1.00
N42    N     0.12914   0.27664   0.69606   0.00000  Uiso   1.00
N43    N     0.04578   0.67103   0.73883   0.00000  Uiso   1.00
N44    N     0.08893   0.68096   0.33656   0.00000  Uiso   1.00
N45    N     0.23879   0.27340   0.64429   0.00000  Uiso   1.00
N46    N     0.15543   0.66779   0.68706   0.00000  Uiso   1.00
C47    C     0.62516   0.01193   0.56442   0.00000  Uiso   1.00
C48    C     0.54700   0.02223   0.59791   0.00000  Uiso   1.00
C49    C     0.51399   0.97188   0.62472   0.00000  Uiso   1.00
C50    C     0.44205   0.99162   0.65316   0.00000  Uiso   1.00
C51    C     0.32639   0.99733   0.70489   0.00000  Uiso   1.00
C52    C     0.62806   0.06861   0.49579   0.00000  Uiso   1.00
C53    C     0.66321   0.05725   0.43675   0.00000  Uiso   1.00
C54    C     0.65952   0.11604   0.37922   0.00000  Uiso   1.00
C55    C     0.66975   0.19375   0.27243   0.00000  Uiso   1.00
C56    C     0.65309   0.03032   0.60148   0.00000  Uiso   1.00
C57    C     0.70931   0.98679   0.63129   0.00000  Uiso   1.00
C58    C     0.72670   0.01335   0.66273   0.00000  Uiso   1.00
C59    C     0.77579   0.03163   0.72002   0.00000  Uiso   1.00
C60    C     0.55609   0.13651   0.56723   0.00000  Uiso   1.00
C61    C     0.50948   0.08990   0.59943   0.00000  Uiso   1.00
C62    C     0.43758   0.10972   0.62783   0.00000  Uiso   1.00
C63    C     0.40447   0.05941   0.65469   0.00000  Uiso   1.00
C64    C     0.59054   0.13627   0.49731   0.00000  Uiso   1.00
C65    C     0.58680   0.19509   0.43986   0.00000  Uiso   1.00
C66    C     0.62194   0.18383   0.38075   0.00000  Uiso   1.00
C67    C     0.61557   0.09799   0.60300   0.00000  Uiso   1.00
C68    C     0.63289   0.12463   0.63440   0.00000  Uiso   1.00
C69    C     0.68912   0.08114   0.66425   0.00000  Uiso   1.00
H70    H     0.65436   0.95925   0.56323   0.00000  Uiso   1.00
H71    H     0.54304   0.91952   0.62353   0.00000  Uiso   1.00
H72    H     0.69224   0.00488   0.43559   0.00000  Uiso   1.00
H73    H     0.73832   0.93443   0.63010   0.00000  Uiso   1.00
H74    H     0.40307   0.90533   0.69104   0.00000  Uiso   1.00
H75    H     0.71769   0.08531   0.29475   0.00000  Uiso   1.00
H76    H     0.81487   0.93675   0.70491   0.00000  Uiso   1.00
H77    H     0.52689   0.18919   0.56841   0.00000  Uiso   1.00
H78    H     0.40856   0.16209   0.62901   0.00000  Uiso   1.00
H79    H     0.55777   0.24744   0.44106   0.00000  Uiso   1.00
H80    H     0.60385   0.17699   0.63557   0.00000  Uiso   1.00
H81    H     0.29392   0.10220   0.69548   0.00000  Uiso   1.00
H82    H     0.60855   0.28219   0.29919   0.00000  Uiso   1.00
H83    H     0.70572   0.13363   0.70935   0.00000  Uiso   1.00
O84    O     0.27295   0.98179   0.73300   0.00000  Uiso   1.00
O85    O     0.68574   0.21792   0.21309   0.00000  Uiso   1.00
O86    O     0.81323   0.02301   0.75121   0.00000  Uiso   1.00
N87    N     0.39362   0.95538   0.68378   0.00000  Uiso   1.00
N88    N     0.68777   0.12365   0.31328   0.00000  Uiso   1.00
N89    N     0.77863   0.98477   0.69672   0.00000  Uiso   1.00
N90    N     0.33489   0.06132   0.68617   0.00000  Uiso   1.00
N91    N     0.62904   0.22959   0.31567   0.00000  Uiso   1.00
N92    N     0.71990   0.09070   0.69911   0.00000  Uiso   1.00
C93    C     0.60049   0.59163   0.01340   0.00000  Uiso   1.00
C94    C     0.62492   0.51333   0.02722   0.00000  Uiso   1.00
C95    C     0.63971   0.48350   0.98223   0.00000  Uiso   1.00
C96    C     0.66135   0.41083   0.00448   0.00000  Uiso   1.00
C97    C     0.69825   0.29554   0.01608   0.00000  Uiso   1.00
C98    C     0.53114   0.60660   0.06414   0.00000  Uiso   1.00
C99    C     0.46709   0.65520   0.05019   0.00000  Uiso   1.00
C100   C     0.40979   0.66106   0.10352   0.00000  Uiso   1.00
C101   C     0.30112   0.69060   0.17244   0.00000  Uiso   1.00
C102   C     0.65370   0.60286   0.03074   0.00000  Uiso   1.00
C103   C     0.69268   0.64833   0.98871   0.00000  Uiso   1.00
C104   C     0.73855   0.65105   0.01393   0.00000  Uiso   1.00
C105   C     0.82015   0.67479   0.03099   0.00000  Uiso   1.00
C106   C     0.61261   0.51561   0.13291   0.00000  Uiso   1.00
C107   C     0.63150   0.47204   0.09214   0.00000  Uiso   1.00
C108   C     0.65313   0.39940   0.11446   0.00000  Uiso   1.00
C109   C     0.66795   0.36947   0.06952   0.00000  Uiso   1.00
C110   C     0.53773   0.56531   0.12905   0.00000  Uiso   1.00
C111   C     0.48051   0.57110   0.18242   0.00000  Uiso   1.00
C112   C     0.41639   0.61969   0.16856   0.00000  Uiso   1.00
C113   C     0.66029   0.56157   0.09566   0.00000  Uiso   1.00
C114   C     0.70610   0.56423   0.12095   0.00000  Uiso   1.00
C115   C     0.74514   0.60969   0.07897   0.00000  Uiso   1.00
H116   H     0.59536   0.62377   0.96286   0.00000  Uiso   1.00
H117   H     0.63460   0.51547   0.93200   0.00000  Uiso   1.00
H118   H     0.46201   0.68715   0.99995   0.00000  Uiso   1.00
H119   H     0.68757   0.68028   0.93848   0.00000  Uiso   1.00
H120   H     0.68099   0.37719   0.92642   0.00000  Uiso   1.00
H121   H     0.31709   0.73920   0.06970   0.00000  Uiso   1.00
H122   H     0.79271   0.72471   0.94008   0.00000  Uiso   1.00
H123   H     0.61774   0.48347   0.18346   0.00000  Uiso   1.00
H124   H     0.65822   0.36746   0.16470   0.00000  Uiso   1.00
H125   H     0.48563   0.53914   0.23265   0.00000  Uiso   1.00
H126   H     0.71118   0.53227   0.17119   0.00000  Uiso   1.00
H127   H     0.70016   0.25706   0.11529   0.00000  Uiso   1.00
H128   H     0.33625   0.61908   0.25857   0.00000  Uiso   1.00
H129   H     0.81187   0.60458   0.12896   0.00000  Uiso   1.00
O130   O     0.71678   0.24335   0.00454   0.00000  Uiso   1.00
O131   O     0.23935   0.71830   0.19251   0.00000  Uiso   1.00
O132   O     0.86336   0.69929   0.02247   0.00000  Uiso   1.00
N133   N     0.67996   0.36484   0.97344   0.00000  Uiso   1.00
N134   N     0.33973   0.70329   0.10739   0.00000  Uiso   1.00
N135   N     0.78438   0.68976   0.98622   0.00000  Uiso   1.00
N136   N     0.69028   0.30020   0.07507   0.00000  Uiso   1.00
N137   N     0.35004   0.63865   0.20903   0.00000  Uiso   1.00
N138   N     0.79469   0.62512   0.08785   0.00000  Uiso   1.00
C139   C     0.49638   0.14412   0.05048   0.00000  Uiso   1.00
C140   C     0.50503   0.06720   0.09352   0.00000  Uiso   1.00
C141   C     0.45538   0.03418   0.11484   0.00000  Uiso   1.00
C142   C     0.47334   0.96349   0.15385   0.00000  Uiso   1.00
C143   C     0.47685   0.84956   0.21807   0.00000  Uiso   1.00
C144   C     0.55875   0.14450   0.99053   0.00000  Uiso   1.00
C145   C     0.55426   0.17649   0.92525   0.00000  Uiso   1.00
C146   C     0.61744   0.17087   0.87757   0.00000  Uiso   1.00
C147   C     0.70436   0.17701   0.78189   0.00000  Uiso   1.00
C148   C     0.50772   0.17486   0.08888   0.00000  Uiso   1.00
C149   C     0.46034   0.23238   0.10628   0.00000  Uiso   1.00
C150   C     0.48056   0.25234   0.14139   0.00000  Uiso   1.00
C151   C     0.48825   0.30560   0.19842   0.00000  Uiso   1.00
C152   C     0.61655   0.07729   0.08186   0.00000  Uiso   1.00
C153   C     0.57030   0.03090   0.11056   0.00000  Uiso   1.00
C154   C     0.58834   0.96024   0.14956   0.00000  Uiso   1.00
C155   C     0.53873   0.92712   0.17093   0.00000  Uiso   1.00
C156   C     0.62402   0.10821   0.00757   0.00000  Uiso   1.00
C157   C     0.68722   0.10255   0.95997   0.00000  Uiso   1.00
C158   C     0.68284   0.13451   0.89464   0.00000  Uiso   1.00
C159   C     0.57299   0.13856   0.10592   0.00000  Uiso   1.00
C160   C     0.59330   0.15844   0.14101   0.00000  Uiso   1.00
C161   C     0.54596   0.21597   0.15847   0.00000  Uiso   1.00
H162   H     0.44556   0.17238   0.03720   0.00000  Uiso   1.00
H163   H     0.40487   0.06229   0.10163   0.00000  Uiso   1.00
H164   H     0.50374   0.20458   0.91208   0.00000  Uiso   1.00
H165   H     0.40983   0.26046   0.09309   0.00000  Uiso   1.00
H166   H     0.38856   0.92422   0.18056   0.00000  Uiso   1.00
H167   H     0.59703   0.22426   0.78088   0.00000  Uiso   1.00
H168   H     0.39900   0.34210   0.16256   0.00000  Uiso   1.00
H169   H     0.66738   0.04903   0.09512   0.00000  Uiso   1.00
H170   H     0.63886   0.93216   0.16274   0.00000  Uiso   1.00
H171   H     0.73773   0.07446   0.97318   0.00000  Uiso   1.00
H172   H     0.64382   0.13033   0.15419   0.00000  Uiso   1.00
H173   H     0.57847   0.81860   0.23015   0.00000  Uiso   1.00
H174   H     0.78694   0.11865   0.83047   0.00000  Uiso   1.00
H175   H     0.58892   0.23648   0.21216   0.00000  Uiso   1.00
O176   O     0.46076   0.79675   0.24877   0.00000  Uiso   1.00
O177   O     0.73426   0.19041   0.72440   0.00000  Uiso   1.00
O178   O     0.47446   0.34500   0.22517   0.00000  Uiso   1.00
N179   N     0.43716   0.91540   0.18297   0.00000  Uiso   1.00
N180   N     0.63207   0.19592   0.80928   0.00000  Uiso   1.00
N181   N     0.44694   0.30609   0.16611   0.00000  Uiso   1.00
N182   N     0.53935   0.85857   0.20965   0.00000  Uiso   1.00
N183   N     0.73426   0.13909   0.83597   0.00000  Uiso   1.00
N184   N     0.54913   0.24926   0.19280   0.00000  Uiso   1.00
C185   C     0.12555   0.08174   0.48752   0.00000  Uiso   1.00
C186   C     0.04575   0.10952   0.51256   0.00000  Uiso   1.00
C187   C     0.99596   0.13654   0.47662   0.00000  Uiso   1.00
C188   C     0.92553   0.15923   0.50838   0.00000  Uiso   1.00
C189   C     0.80464   0.20297   0.53733   0.00000  Uiso   1.00
C190   C     0.14933   0.00680   0.53539   0.00000  Uiso   1.00
C191   C     0.18664   0.94745   0.51863   0.00000  Uiso   1.00
C192   C     0.20342   0.88368   0.56962   0.00000  Uiso   1.00
C193   C     0.24339   0.76795   0.63401   0.00000  Uiso   1.00
C194   C     0.15653   0.12358   0.49707   0.00000  Uiso   1.00
C195   C     0.19991   0.16241   0.44811   0.00000  Uiso   1.00
C196   C     0.22276   0.19694   0.46685   0.00000  Uiso   1.00
C197   C     0.27391   0.26253   0.47174   0.00000  Uiso   1.00
C198   C     0.08902   0.07400   0.60785   0.00000  Uiso   1.00
C199   C     0.02591   0.10531   0.57792   0.00000  Uiso   1.00
C200   C     0.95554   0.12797   0.60975   0.00000  Uiso   1.00
C201   C     0.90565   0.15502   0.57386   0.00000  Uiso   1.00
C202   C     0.12950   0.00259   0.60074   0.00000  Uiso   1.00
C203   C     0.14623   0.93889   0.65177   0.00000  Uiso   1.00
C204   C     0.18355   0.87946   0.63510   0.00000  Uiso   1.00
C205   C     0.13669   0.11938   0.56243   0.00000  Uiso   1.00
C206   C     0.15949   0.15385   0.58125   0.00000  Uiso   1.00
C207   C     0.20289   0.19272   0.53233   0.00000  Uiso   1.00
H208   H     0.14100   0.08500   0.43663   0.00000  Uiso   1.00
H209   H     0.01133   0.13977   0.42604   0.00000  Uiso   1.00
H210   H     0.20199   0.95072   0.46805   0.00000  Uiso   1.00
H211   H     0.21525   0.16565   0.39754   0.00000  Uiso   1.00
H212   H     0.85882   0.19862   0.44312   0.00000  Uiso   1.00
H213   H     0.26086   0.80000   0.53171   0.00000  Uiso   1.00
H214   H     0.28883   0.25321   0.38302   0.00000  Uiso   1.00
H215   H     0.07358   0.07072   0.65874   0.00000  Uiso   1.00
H216   H     0.94021   0.12471   0.66033   0.00000  Uiso   1.00
H217   H     0.13087   0.93566   0.70234   0.00000  Uiso   1.00
H218   H     0.14413   0.15058   0.63183   0.00000  Uiso   1.00
H219   H     0.80109   0.18639   0.63328   0.00000  Uiso   1.00
H220   H     0.20314   0.78777   0.72187   0.00000  Uiso   1.00
H221   H     0.23110   0.24098   0.57318   0.00000  Uiso   1.00
O222   O     0.74344   0.22826   0.53525   0.00000  Uiso   1.00
O223   O     0.27091   0.70528   0.65146   0.00000  Uiso   1.00
O224   O     0.30760   0.29988   0.45639   0.00000  Uiso   1.00
N225   N     0.86354   0.18835   0.48765   0.00000  Uiso   1.00
N226   N     0.23941   0.81566   0.57048   0.00000  Uiso   1.00
N227   N     0.26557   0.23935   0.43147   0.00000  Uiso   1.00
N228   N     0.83248   0.18177   0.58998   0.00000  Uiso   1.00
N229   N     0.20835   0.80908   0.67280   0.00000  Uiso   1.00
N230   N     0.23451   0.23277   0.53379   0.00000  Uiso   1.00
C231   C     0.00371   0.54538   0.16841   0.00000  Uiso   1.00
C232   C     0.02853   0.55980   0.09458   0.00000  Uiso   1.00
C233   C     0.04728   0.51220   0.06528   0.00000  Uiso   1.00
C234   C     0.06856   0.53554   0.99697   0.00000  Uiso   1.00
C235   C     0.10669   0.54752   0.88804   0.00000  Uiso   1.00
C236   C     0.93192   0.60074   0.17856   0.00000  Uiso   1.00
C237   C     0.86943   0.58756   0.21989   0.00000  Uiso   1.00
C238   C     0.80938   0.64536   0.22228   0.00000  Uiso   1.00
C239   C     0.69753   0.72090   0.24378   0.00000  Uiso   1.00
C240   C     0.05374   0.56202   0.18467   0.00000  Uiso   1.00
C241   C     0.09368   0.51629   0.23114   0.00000  Uiso   1.00
C242   C     0.13618   0.54149   0.23870   0.00000  Uiso   1.00
C243   C     0.21348   0.55690   0.26968   0.00000  Uiso   1.00
C244   C     0.00818   0.67146   0.09921   0.00000  Uiso   1.00
C245   C     0.03095   0.62828   0.05699   0.00000  Uiso   1.00
C246   C     0.05221   0.65169   0.98871   0.00000  Uiso   1.00
C247   C     0.07099   0.60414   0.95931   0.00000  Uiso   1.00
C248   C     0.93434   0.66922   0.14097   0.00000  Uiso   1.00
C249   C     0.87437   0.72705   0.14332   0.00000  Uiso   1.00
C250   C     0.81181   0.71397   0.18463   0.00000  Uiso   1.00
C251   C     0.05617   0.63049   0.14708   0.00000  Uiso   1.00
C252   C     0.09862   0.65578   0.15457   0.00000  Uiso   1.00
C253   C     0.13861   0.61010   0.20104   0.00000  Uiso   1.00
H254   H     0.00182   0.49207   0.19768   0.00000  Uiso   1.00
H255   H     0.04539   0.45922   0.09438   0.00000  Uiso   1.00
H256   H     0.86757   0.53456   0.24897   0.00000  Uiso   1.00
H257   H     0.09179   0.46330   0.26022   0.00000  Uiso   1.00
H258   H     0.09473   0.45300   0.96328   0.00000  Uiso   1.00
H259   H     0.71981   0.61187   0.28926   0.00000  Uiso   1.00
H260   H     0.19260   0.46160   0.31299   0.00000  Uiso   1.00
H261   H     0.01006   0.72478   0.06994   0.00000  Uiso   1.00
H262   H     0.05408   0.70469   0.95963   0.00000  Uiso   1.00
H263   H     0.87626   0.78003   0.11422   0.00000  Uiso   1.00
H264   H     0.10048   0.70877   0.12547   0.00000  Uiso   1.00
H265   H     0.10179   0.65223   0.85391   0.00000  Uiso   1.00
H266   H     0.72686   0.81110   0.17989   0.00000  Uiso   1.00
H267   H     0.19965   0.66083   0.20362   0.00000  Uiso   1.00
O268   O     0.12705   0.53521   0.83834   0.00000  Uiso   1.00
O269   O     0.63516   0.74364   0.26602   0.00000  Uiso   1.00
O270   O     0.25546   0.54649   0.29714   0.00000  Uiso   1.00
N271   N     0.09037   0.50264   0.95268   0.00000  Uiso   1.00
N272   N     0.73983   0.65118   0.25744   0.00000  Uiso   1.00
N273   N     0.18184   0.51069   0.27964   0.00000  Uiso   1.00
N274   N     0.09416   0.60984   0.89383   0.00000  Uiso   1.00
N275   N     0.74362   0.75838   0.19859   0.00000  Uiso   1.00
N276   N     0.18563   0.61790   0.22079   0.00000  Uiso   1.00
C277   C     0.95826   0.45571   0.38772   0.00000  Uiso   1.00
C278   C     0.94868   0.41794   0.46209   0.00000  Uiso   1.00
C279   C     0.00170   0.38437   0.49579   0.00000  Uiso   1.00
C280   C     0.98219   0.35292   0.56380   0.00000  Uiso   1.00
C281   C     0.97796   0.29398   0.67425   0.00000  Uiso   1.00
C282   C     0.90738   0.53027   0.37729   0.00000  Uiso   1.00
C283   C     0.92568   0.59115   0.33967   0.00000  Uiso   1.00
C284   C     0.87138   0.65425   0.33630   0.00000  Uiso   1.00
C285   C     0.80302   0.76970   0.31505   0.00000  Uiso   1.00
C286   C     0.93036   0.42156   0.36551   0.00000  Uiso   1.00
C287   C     0.96797   0.39106   0.31797   0.00000  Uiso   1.00
C288   C     0.93302   0.36266   0.30467   0.00000  Uiso   1.00
C289   C     0.90034   0.30933   0.26513   0.00000  Uiso   1.00
C290   C     0.82931   0.45953   0.44860   0.00000  Uiso   1.00
C291   C     0.87864   0.42002   0.49516   0.00000  Uiso   1.00
C292   C     0.85903   0.38860   0.56314   0.00000  Uiso   1.00
C293   C     0.91202   0.35500   0.59693   0.00000  Uiso   1.00
C294   C     0.83734   0.53234   0.41036   0.00000  Uiso   1.00
C295   C     0.78301   0.59537   0.40703   0.00000  Uiso   1.00
C296   C     0.80122   0.65633   0.36942   0.00000  Uiso   1.00
C297   C     0.86032   0.42364   0.39858   0.00000  Uiso   1.00
C298   C     0.82530   0.39528   0.38534   0.00000  Uiso   1.00
C299   C     0.86285   0.36474   0.33779   0.00000  Uiso   1.00
H300   H     0.01279   0.45410   0.36198   0.00000  Uiso   1.00
H301   H     0.05590   0.38278   0.47018   0.00000  Uiso   1.00
H302   H     0.97988   0.58952   0.31408   0.00000  Uiso   1.00
H303   H     0.02217   0.38946   0.29240   0.00000  Uiso   1.00
H304   H     0.07280   0.30465   0.60472   0.00000  Uiso   1.00
H305   H     0.91251   0.74057   0.27557   0.00000  Uiso   1.00
H306   H     0.00168   0.31871   0.22983   0.00000  Uiso   1.00
H307   H     0.77478   0.46115   0.47435   0.00000  Uiso   1.00
H308   H     0.80483   0.39022   0.58872   0.00000  Uiso   1.00
H309   H     0.72881   0.59696   0.43262   0.00000  Uiso   1.00
H310   H     0.77110   0.39690   0.41094   0.00000  Uiso   1.00
H311   H     0.86902   0.31069   0.70094   0.00000  Uiso   1.00
H312   H     0.70873   0.74661   0.37178   0.00000  Uiso   1.00
H313   H     0.79790   0.32475   0.32605   0.00000  Uiso   1.00
O314   O     0.99497   0.26090   0.72604   0.00000  Uiso   1.00
O315   O     0.78467   0.83281   0.29420   0.00000  Uiso   1.00
O316   O     0.90166   0.27934   0.23419   0.00000  Uiso   1.00
N317   N     0.02072   0.31580   0.61167   0.00000  Uiso   1.00
N318   N     0.87086   0.72336   0.30394   0.00000  Uiso   1.00
N319   N     0.95422   0.32897   0.26117   0.00000  Uiso   1.00
N320   N     0.91107   0.31904   0.66344   0.00000  Uiso   1.00
N321   N     0.76121   0.72660   0.35571   0.00000  Uiso   1.00
N322   N     0.84457   0.33221   0.31294   0.00000  Uiso   1.00
C323   C     0.37484   0.98807   0.43558   0.00000  Uiso   1.00
C324   C     0.45300   0.97777   0.40209   0.00000  Uiso   1.00
C325   C     0.48601   0.02812   0.37528   0.00000  Uiso   1.00
C326   C     0.55795   0.00838   0.34684   0.00000  Uiso   1.00
C327   C     0.67361   0.00267   0.29511   0.00000  Uiso   1.00
C328   C     0.37194   0.93139   0.50421   0.00000  Uiso   1.00
C329   C     0.33679   0.94275   0.56325   0.00000  Uiso   1.00
C330   C     0.34048   0.88396   0.62078   0.00000  Uiso   1.00
C331   C     0.33025   0.80625   0.72757   0.00000  Uiso   1.00
C332   C     0.34691   0.96968   0.39852   0.00000  Uiso   1.00
C333   C     0.29069   0.01321   0.36871   0.00000  Uiso   1.00
C334   C     0.27330   0.98665   0.33727   0.00000  Uiso   1.00
C335   C     0.22421   0.96837   0.27998   0.00000  Uiso   1.00
C336   C     0.44391   0.86349   0.43277   0.00000  Uiso   1.00
C337   C     0.49052   0.91010   0.40057   0.00000  Uiso   1.00
C338   C     0.56242   0.89028   0.37217   0.00000  Uiso   1.00
C339   C     0.59553   0.94059   0.34531   0.00000  Uiso   1.00
C340   C     0.40946   0.86373   0.50269   0.00000  Uiso   1.00
C341   C     0.41320   0.80491   0.56014   0.00000  Uiso   1.00
C342   C     0.37806   0.81617   0.61925   0.00000  Uiso   1.00
C343   C     0.38443   0.90201   0.39700   0.00000  Uiso   1.00
C344   C     0.36711   0.87537   0.36560   0.00000  Uiso   1.00
C345   C     0.31088   0.91886   0.33575   0.00000  Uiso   1.00
H346   H     0.34564   0.04075   0.43677   0.00000  Uiso   1.00
H347   H     0.45696   0.08048   0.37647   0.00000  Uiso   1.00
H348   H     0.30776   0.99512   0.56441   0.00000  Uiso   1.00
H349   H     0.26168   0.06557   0.36990   0.00000  Uiso   1.00
H350   H     0.59693   0.09467   0.30896   0.00000  Uiso   1.00
H351   H     0.28231   0.91469   0.70525   0.00000  Uiso   1.00
H352   H     0.18513   0.06325   0.29509   0.00000  Uiso   1.00
H353   H     0.47311   0.81081   0.43159   0.00000  Uiso   1.00
H354   H     0.59144   0.83791   0.37099   0.00000  Uiso   1.00
H355   H     0.44223   0.75256   0.55894   0.00000  Uiso   1.00
H356   H     0.39615   0.82301   0.36443   0.00000  Uiso   1.00
H357   H     0.70608   0.89780   0.30452   0.00000  Uiso   1.00
H358   H     0.39145   0.71781   0.70081   0.00000  Uiso   1.00
H359   H     0.29428   0.86637   0.29065   0.00000  Uiso   1.00
O360   O     0.72705   0.01821   0.26700   0.00000  Uiso   1.00
O361   O     0.31426   0.78208   0.78691   0.00000  Uiso   1.00
O362   O     0.18677   0.97699   0.24879   0.00000  Uiso   1.00
N363   N     0.60638   0.04462   0.31622   0.00000  Uiso   1.00
N364   N     0.31223   0.87635   0.68672   0.00000  Uiso   1.00
N365   N     0.22137   0.01523   0.30328   0.00000  Uiso   1.00
N366   N     0.66511   0.93868   0.31383   0.00000  Uiso   1.00
N367   N     0.37096   0.77041   0.68433   0.00000  Uiso   1.00
N368   N     0.28010   0.90930   0.30089   0.00000  Uiso   1.00
C369   C     0.39951   0.40837   0.98660   0.00000  Uiso   1.00
C370   C     0.37508   0.48667   0.97278   0.00000  Uiso   1.00
C371   C     0.36029   0.51650   0.01777   0.00000  Uiso   1.00
C372   C     0.33865   0.58917   0.99552   0.00000  Uiso   1.00
C373   C     0.30175   0.70446   0.98392   0.00000  Uiso   1.00
C374   C     0.46886   0.39340   0.93586   0.00000  Uiso   1.00
C375   C     0.53291   0.34480   0.94981   0.00000  Uiso   1.00
C376   C     0.59021   0.33894   0.89648   0.00000  Uiso   1.00
C377   C     0.69888   0.30940   0.82756   0.00000  Uiso   1.00
C378   C     0.34630   0.39714   0.96926   0.00000  Uiso   1.00
C379   C     0.30732   0.35167   0.01129   0.00000  Uiso   1.00
C380   C     0.26145   0.34895   0.98607   0.00000  Uiso   1.00
C381   C     0.17985   0.32521   0.96901   0.00000  Uiso   1.00
C382   C     0.38739   0.48439   0.86709   0.00000  Uiso   1.00
C383   C     0.36850   0.52796   0.90786   0.00000  Uiso   1.00
C384   C     0.34687   0.60060   0.88554   0.00000  Uiso   1.00
C385   C     0.33205   0.63053   0.93048   0.00000  Uiso   1.00
C386   C     0.46227   0.43469   0.87095   0.00000  Uiso   1.00
C387   C     0.51949   0.42890   0.81758   0.00000  Uiso   1.00
C388   C     0.58361   0.38031   0.83144   0.00000  Uiso   1.00
C389   C     0.33971   0.43843   0.90434   0.00000  Uiso   1.00
C390   C     0.29390   0.43577   0.87905   0.00000  Uiso   1.00
C391   C     0.25486   0.39031   0.92103   0.00000  Uiso   1.00
H392   H     0.40464   0.37623   0.03714   0.00000  Uiso   1.00
H393   H     0.36540   0.48453   0.06800   0.00000  Uiso   1.00
H394   H     0.53799   0.31285   0.00005   0.00000  Uiso   1.00
H395   H     0.31243   0.31972   0.06152   0.00000  Uiso   1.00
H396   H     0.31901   0.62281   0.07358   0.00000  Uiso   1.00
H397   H     0.68291   0.26080   0.93030   0.00000  Uiso   1.00
H398   H     0.20729   0.27529   0.05992   0.00000  Uiso   1.00
H399   H     0.38226   0.51653   0.81654   0.00000  Uiso   1.00
H400   H     0.34178   0.63254   0.83530   0.00000  Uiso   1.00
H401   H     0.51437   0.46086   0.76735   0.00000  Uiso   1.00
H402   H     0.28882   0.46773   0.82881   0.00000  Uiso   1.00
H403   H     0.29984   0.74294   0.88471   0.00000  Uiso   1.00
H404   H     0.66375   0.38092   0.74143   0.00000  Uiso   1.00
H405   H     0.18813   0.39542   0.87104   0.00000  Uiso   1.00
O406   O     0.28322   0.75665   0.99546   0.00000  Uiso   1.00
O407   O     0.76065   0.28170   0.80749   0.00000  Uiso   1.00
O408   O     0.13664   0.30071   0.97753   0.00000  Uiso   1.00
N409   N     0.32004   0.63516   0.02656   0.00000  Uiso   1.00
N410   N     0.66027   0.29671   0.89261   0.00000  Uiso   1.00
N411   N     0.21562   0.31024   0.01378   0.00000  Uiso   1.00
N412   N     0.30972   0.69980   0.92493   0.00000  Uiso   1.00
N413   N     0.64996   0.36135   0.79097   0.00000  Uiso   1.00
N414   N     0.20531   0.37488   0.91215   0.00000  Uiso   1.00
C415   C     0.50362   0.85588   0.94952   0.00000  Uiso   1.00
C416   C     0.49497   0.93280   0.90648   0.00000  Uiso   1.00
C417   C     0.54462   0.96582   0.88516   0.00000  Uiso   1.00
C418   C     0.52666   0.03651   0.84615   0.00000  Uiso   1.00
C419   C     0.52315   0.15044   0.78193   0.00000  Uiso   1.00
C420   C     0.44125   0.85550   0.00947   0.00000  Uiso   1.00
C421   C     0.44574   0.82351   0.07475   0.00000  Uiso   1.00
C422   C     0.38256   0.82913   0.12243   0.00000  Uiso   1.00
C423   C     0.29564   0.82299   0.21811   0.00000  Uiso   1.00
C424   C     0.49228   0.82514   0.91112   0.00000  Uiso   1.00
C425   C     0.53966   0.76762   0.89372   0.00000  Uiso   1.00
C426   C     0.51944   0.74766   0.85861   0.00000  Uiso   1.00
C427   C     0.51175   0.69440   0.80158   0.00000  Uiso   1.00
C428   C     0.38345   0.92271   0.91814   0.00000  Uiso   1.00
C429   C     0.42970   0.96910   0.88944   0.00000  Uiso   1.00
C430   C     0.41166   0.03976   0.85044   0.00000  Uiso   1.00
C431   C     0.46127   0.07288   0.82907   0.00000  Uiso   1.00
C432   C     0.37598   0.89179   0.99243   0.00000  Uiso   1.00
C433   C     0.31278   0.89745   0.04003   0.00000  Uiso   1.00
C434   C     0.31716   0.86549   0.10536   0.00000  Uiso   1.00
C435   C     0.42701   0.86144   0.89408   0.00000  Uiso   1.00
C436   C     0.40670   0.84156   0.85899   0.00000  Uiso   1.00
C437   C     0.45404   0.78403   0.84153   0.00000  Uiso   1.00
H438   H     0.55444   0.82762   0.96280   0.00000  Uiso   1.00
H439   H     0.59513   0.93771   0.89837   0.00000  Uiso   1.00
H440   H     0.49626   0.79542   0.08792   0.00000  Uiso   1.00
H441   H     0.59017   0.73954   0.90691   0.00000  Uiso   1.00
H442   H     0.61144   0.07578   0.81944   0.00000  Uiso   1.00
H443   H     0.40297   0.77574   0.21912   0.00000  Uiso   1.00
H444   H     0.60100   0.65790   0.83744   0.00000  Uiso   1.00
H445   H     0.33262   0.95097   0.90488   0.00000  Uiso   1.00
H446   H     0.36114   0.06784   0.83726   0.00000  Uiso   1.00
H447   H     0.26227   0.92554   0.02682   0.00000  Uiso   1.00
H448   H     0.35618   0.86967   0.84581   0.00000  Uiso   1.00
H449   H     0.42153   0.18140   0.76985   0.00000  Uiso   1.00
H450   H     0.21306   0.88135   0.16953   0.00000  Uiso   1.00
H451   H     0.41108   0.76352   0.78784   0.00000  Uiso   1.00
O452   O     0.53924   0.20325   0.75123   0.00000  Uiso   1.00
O453   O     0.26574   0.80959   0.27560   0.00000  Uiso   1.00
O454   O     0.52554   0.65500   0.77483   0.00000  Uiso   1.00
N455   N     0.56284   0.08460   0.81703   0.00000  Uiso   1.00
N456   N     0.36793   0.80408   0.19072   0.00000  Uiso   1.00
N457   N     0.55306   0.69391   0.83389   0.00000  Uiso   1.00
N458   N     0.46065   0.14143   0.79035   0.00000  Uiso   1.00
N459   N     0.26574   0.86091   0.16403   0.00000  Uiso   1.00
N460   N     0.45087   0.75074   0.80720   0.00000  Uiso   1.00
C461   C     0.87445   0.91826   0.51248   0.00000  Uiso   1.00
C462   C     0.95425   0.89048   0.48744   0.00000  Uiso   1.00
C463   C     0.00404   0.86346   0.52338   0.00000  Uiso   1.00
C464   C     0.07447   0.84077   0.49162   0.00000  Uiso   1.00
C465   C     0.19536   0.79703   0.46267   0.00000  Uiso   1.00
C466   C     0.85067   0.99320   0.46461   0.00000  Uiso   1.00
C467   C     0.81336   0.05255   0.48137   0.00000  Uiso   1.00
C468   C     0.79658   0.11632   0.43038   0.00000  Uiso   1.00
C469   C     0.75661   0.23205   0.36599   0.00000  Uiso   1.00
C470   C     0.84347   0.87642   0.50293   0.00000  Uiso   1.00
C471   C     0.80009   0.83759   0.55189   0.00000  Uiso   1.00
C472   C     0.77724   0.80306   0.53315   0.00000  Uiso   1.00
C473   C     0.72609   0.73747   0.52826   0.00000  Uiso   1.00
C474   C     0.91098   0.92600   0.39215   0.00000  Uiso   1.00
C475   C     0.97409   0.89469   0.42208   0.00000  Uiso   1.00
C476   C     0.04446   0.87203   0.39025   0.00000  Uiso   1.00
C477   C     0.09435   0.84498   0.42614   0.00000  Uiso   1.00
C478   C     0.87050   0.99741   0.39926   0.00000  Uiso   1.00
C479   C     0.85377   0.06111   0.34823   0.00000  Uiso   1.00
C480   C     0.81645   0.12054   0.36490   0.00000  Uiso   1.00
C481   C     0.86331   0.88062   0.43757   0.00000  Uiso   1.00
C482   C     0.84051   0.84615   0.41875   0.00000  Uiso   1.00
C483   C     0.79711   0.80728   0.46767   0.00000  Uiso   1.00
H484   H     0.85900   0.91500   0.56337   0.00000  Uiso   1.00
H485   H     0.98867   0.86023   0.57396   0.00000  Uiso   1.00
H486   H     0.79801   0.04928   0.53195   0.00000  Uiso   1.00
H487   H     0.78475   0.83435   0.60246   0.00000  Uiso   1.00
H488   H     0.14118   0.80138   0.55688   0.00000  Uiso   1.00
H489   H     0.73914   0.20000   0.46829   0.00000  Uiso   1.00
H490   H     0.71117   0.74679   0.61698   0.00000  Uiso   1.00
H491   H     0.92642   0.92928   0.34126   0.00000  Uiso   1.00
H492   H     0.05979   0.87529   0.33967   0.00000  Uiso   1.00
H493   H     0.86913   0.06434   0.29766   0.00000  Uiso   1.00
H494   H     0.85587   0.84942   0.36817   0.00000  Uiso   1.00
H495   H     0.19891   0.81361   0.36672   0.00000  Uiso   1.00
H496   H     0.79686   0.21223   0.27813   0.00000  Uiso   1.00
H497   H     0.76890   0.75902   0.42682   0.00000  Uiso   1.00
O498   O     0.25656   0.77174   0.46475   0.00000  Uiso   1.00
O499   O     0.72909   0.29472   0.34854   0.00000  Uiso   1.00
O500   O     0.69240   0.70012   0.54361   0.00000  Uiso   1.00
N501   N     0.13646   0.81165   0.51235   0.00000  Uiso   1.00
N502   N     0.76059   0.18434   0.42952   0.00000  Uiso   1.00
N503   N     0.73443   0.76065   0.56853   0.00000  Uiso   1.00
N504   N     0.16752   0.81823   0.41002   0.00000  Uiso   1.00
N505   N     0.79165   0.19092   0.32720   0.00000  Uiso   1.00
N506   N     0.76549   0.76723   0.46621   0.00000  Uiso   1.00
C507   C     0.99629   0.45462   0.83159   0.00000  Uiso   1.00
C508   C     0.97147   0.44020   0.90542   0.00000  Uiso   1.00
C509   C     0.95272   0.48780   0.93472   0.00000  Uiso   1.00
C510   C     0.93144   0.46446   0.00303   0.00000  Uiso   1.00
C511   C     0.89331   0.45248   0.11196   0.00000  Uiso   1.00
C512   C     0.06808   0.39926   0.82144   0.00000  Uiso   1.00
C513   C     0.13057   0.41244   0.78012   0.00000  Uiso   1.00
C514   C     0.19062   0.35464   0.77772   0.00000  Uiso   1.00
C515   C     0.30247   0.27910   0.75622   0.00000  Uiso   1.00
C516   C     0.94626   0.43798   0.81533   0.00000  Uiso   1.00
C517   C     0.90632   0.48371   0.76886   0.00000  Uiso   1.00
C518   C     0.86382   0.45851   0.76130   0.00000  Uiso   1.00
C519   C     0.78652   0.44310   0.73032   0.00000  Uiso   1.00
C520   C     0.99182   0.32854   0.90079   0.00000  Uiso   1.00
C521   C     0.96905   0.37172   0.94301   0.00000  Uiso   1.00
C522   C     0.94779   0.34831   0.01129   0.00000  Uiso   1.00
C523   C     0.92901   0.39586   0.04069   0.00000  Uiso   1.00
C524   C     0.06566   0.33078   0.85903   0.00000  Uiso   1.00
C525   C     0.12563   0.27295   0.85668   0.00000  Uiso   1.00
C526   C     0.18819   0.28603   0.81537   0.00000  Uiso   1.00
C527   C     0.94383   0.36951   0.85292   0.00000  Uiso   1.00
C528   C     0.90138   0.34422   0.84543   0.00000  Uiso   1.00
C529   C     0.86139   0.38990   0.79896   0.00000  Uiso   1.00
H530   H     0.99818   0.50793   0.80232   0.00000  Uiso   1.00
H531   H     0.95461   0.54078   0.90562   0.00000  Uiso   1.00
H532   H     0.13243   0.46544   0.75103   0.00000  Uiso   1.00
H533   H     0.90821   0.53670   0.73978   0.00000  Uiso   1.00
H534   H     0.90527   0.54700   0.03672   0.00000  Uiso   1.00
H535   H     0.28019   0.38813   0.71074   0.00000  Uiso   1.00
H536   H     0.80740   0.53840   0.68701   0.00000  Uiso   1.00
H537   H     0.98994   0.27522   0.93006   0.00000  Uiso   1.00
H538   H     0.94592   0.29531   0.04037   0.00000  Uiso   1.00
H539   H     0.12374   0.21997   0.88578   0.00000  Uiso   1.00
H540   H     0.89952   0.29123   0.87453   0.00000  Uiso   1.00
H541   H     0.89821   0.34777   0.14609   0.00000  Uiso   1.00
H542   H     0.27314   0.18890   0.82011   0.00000  Uiso   1.00
H543   H     0.80035   0.33917   0.79638   0.00000  Uiso   1.00
O544   O     0.87295   0.46479   0.16166   0.00000  Uiso   1.00
O545   O     0.36484   0.25636   0.73398   0.00000  Uiso   1.00
O546   O     0.74454   0.45351   0.70286   0.00000  Uiso   1.00
N547   N     0.90963   0.49736   0.04732   0.00000  Uiso   1.00
N548   N     0.26017   0.34882   0.74256   0.00000  Uiso   1.00
N549   N     0.81816   0.48931   0.72036   0.00000  Uiso   1.00
N550   N     0.90584   0.39016   0.10617   0.00000  Uiso   1.00
N551   N     0.25638   0.24162   0.80141   0.00000  Uiso   1.00
N552   N     0.81437   0.38210   0.77921   0.00000  Uiso   1.00
