data_job_04337
_audit_creation_date              2018-12-19
_audit_creation_method            'Materials Studio'
_symmetry_space_group_name_H-M    'P1'
_symmetry_Int_Tables_number       1
_symmetry_cell_setting            triclinic
loop_
_symmetry_equiv_pos_as_xyz
  x,y,z
_cell_length_a                    34.6498
_cell_length_b                    11.1019
_cell_length_c                    12.8637
_cell_angle_alpha                 90.0000
_cell_angle_beta                  69.2984
_cell_angle_gamma                 90.0000
loop_
_atom_site_label
_atom_site_type_symbol
_atom_site_fract_x
_atom_site_fract_y
_atom_site_fract_z
_atom_site_U_iso_or_equiv
_atom_site_adp_type
_atom_site_occupancy
C1     C     0.86358   0.07383   0.30742   0.00000  Uiso   1.00
C2     C     0.90235   0.99871   0.25303   0.00000  Uiso   1.00
C3     C     0.90520   0.87455   0.26054   0.00000  Uiso   1.00
C4     C     0.94342   0.82275   0.20479   0.00000  Uiso   1.00
C5     C     0.99844   0.69547   0.12967   0.00000  Uiso   1.00
C6     C     0.87489   0.16738   0.37863   0.00000  Uiso   1.00
C7     C     0.85465   0.18504   0.49175   0.00000  Uiso   1.00
C8     C     0.86975   0.27524   0.54172   0.00000  Uiso   1.00
C9     C     0.88212   0.40988   0.66158   0.00000  Uiso   1.00
C10    C     0.85654   0.14366   0.21359   0.00000  Uiso   1.00
C11    C     0.82086   0.14141   0.18795   0.00000  Uiso   1.00
C12    C     0.82052   0.21166   0.09899   0.00000  Uiso   1.00
C13    C     0.80440   0.30948   0.96261   0.00000  Uiso   1.00
C14    C     0.92640   0.20262   0.19504   0.00000  Uiso   1.00
C15    C     0.93647   0.06867   0.19199   0.00000  Uiso   1.00
C16    C     0.97470   0.01704   0.13621   0.00000  Uiso   1.00
C17    C     0.97761   0.89282   0.14364   0.00000  Uiso   1.00
C18    C     0.90901   0.23733   0.31760   0.00000  Uiso   1.00
C19    C     0.92415   0.32753   0.36741   0.00000  Uiso   1.00
C20    C     0.90393   0.34532   0.48057   0.00000  Uiso   1.00
C21    C     0.89067   0.21362   0.15255   0.00000  Uiso   1.00
C22    C     0.89037   0.28389   0.06362   0.00000  Uiso   1.00
C23    C     0.85470   0.28174   0.03785   0.00000  Uiso   1.00
H24    H     0.83701   0.01937   0.35494   0.00000  Uiso   1.00
H25    H     0.87879   0.82044   0.30780   0.00000  Uiso   1.00
H26    H     0.82824   0.13090   0.53896   0.00000  Uiso   1.00
H27    H     0.79447   0.08726   0.23521   0.00000  Uiso   1.00
H28    H     0.94015   0.63075   0.22864   0.00000  Uiso   1.00
H29    H     0.83356   0.28538   0.71605   0.00000  Uiso   1.00
H30    H     0.76234   0.19338   0.07554   0.00000  Uiso   1.00
H31    H     0.95297   0.25709   0.14752   0.00000  Uiso   1.00
H32    H     0.00110   0.07120   0.08898   0.00000  Uiso   1.00
H33    H     0.95055   0.38165   0.32015   0.00000  Uiso   1.00
H34    H     0.91678   0.33802   0.01640   0.00000  Uiso   1.00
H35    H     0.03943   0.83428   0.05105   0.00000  Uiso   1.00
H36    H     0.93283   0.48891   0.53846   0.00000  Uiso   1.00
H37    H     0.86162   0.39690   0.89795   0.00000  Uiso   1.00
O38    O     0.01937   0.60595   0.10511   0.00000  Uiso   1.00
O39    O     0.87952   0.46481   0.74457   0.00000  Uiso   1.00
O40    O     0.78608   0.34409   0.90423   0.00000  Uiso   1.00
N41    N     0.95691   0.70416   0.19486   0.00000  Uiso   1.00
N42    N     0.85726   0.31619   0.65056   0.00000  Uiso   1.00
N43    N     0.79067   0.23019   0.05175   0.00000  Uiso   1.00
N44    N     0.01033   0.81367   0.09930   0.00000  Uiso   1.00
N45    N     0.91067   0.42570   0.55500   0.00000  Uiso   1.00
N46    N     0.84409   0.33971   0.95619   0.00000  Uiso   1.00
C47    C     0.36358   0.57383   0.30742   0.00000  Uiso   1.00
C48    C     0.40235   0.49871   0.25303   0.00000  Uiso   1.00
C49    C     0.40520   0.37455   0.26054   0.00000  Uiso   1.00
C50    C     0.44342   0.32275   0.20479   0.00000  Uiso   1.00
C51    C     0.49844   0.19547   0.12967   0.00000  Uiso   1.00
C52    C     0.37489   0.66738   0.37863   0.00000  Uiso   1.00
C53    C     0.35465   0.68504   0.49175   0.00000  Uiso   1.00
C54    C     0.36975   0.77524   0.54172   0.00000  Uiso   1.00
C55    C     0.38212   0.90988   0.66158   0.00000  Uiso   1.00
C56    C     0.35654   0.64366   0.21359   0.00000  Uiso   1.00
C57    C     0.32086   0.64141   0.18795   0.00000  Uiso   1.00
C58    C     0.32052   0.71166   0.09899   0.00000  Uiso   1.00
C59    C     0.30440   0.80948   0.96261   0.00000  Uiso   1.00
C60    C     0.42640   0.70262   0.19504   0.00000  Uiso   1.00
C61    C     0.43647   0.56867   0.19199   0.00000  Uiso   1.00
C62    C     0.47470   0.51704   0.13621   0.00000  Uiso   1.00
C63    C     0.47761   0.39282   0.14364   0.00000  Uiso   1.00
C64    C     0.40901   0.73733   0.31760   0.00000  Uiso   1.00
C65    C     0.42415   0.82753   0.36741   0.00000  Uiso   1.00
C66    C     0.40393   0.84532   0.48057   0.00000  Uiso   1.00
C67    C     0.39067   0.71362   0.15255   0.00000  Uiso   1.00
C68    C     0.39037   0.78389   0.06362   0.00000  Uiso   1.00
C69    C     0.35470   0.78174   0.03785   0.00000  Uiso   1.00
H70    H     0.33701   0.51937   0.35494   0.00000  Uiso   1.00
H71    H     0.37879   0.32044   0.30780   0.00000  Uiso   1.00
H72    H     0.32824   0.63090   0.53896   0.00000  Uiso   1.00
H73    H     0.29447   0.58726   0.23521   0.00000  Uiso   1.00
H74    H     0.44015   0.13075   0.22864   0.00000  Uiso   1.00
H75    H     0.33356   0.78538   0.71605   0.00000  Uiso   1.00
H76    H     0.26234   0.69338   0.07554   0.00000  Uiso   1.00
H77    H     0.45297   0.75709   0.14752   0.00000  Uiso   1.00
H78    H     0.50110   0.57120   0.08898   0.00000  Uiso   1.00
H79    H     0.45055   0.88165   0.32015   0.00000  Uiso   1.00
H80    H     0.41678   0.83802   0.01640   0.00000  Uiso   1.00
H81    H     0.53943   0.33428   0.05105   0.00000  Uiso   1.00
H82    H     0.43283   0.98891   0.53846   0.00000  Uiso   1.00
H83    H     0.36162   0.89690   0.89795   0.00000  Uiso   1.00
O84    O     0.51937   0.10595   0.10511   0.00000  Uiso   1.00
O85    O     0.37952   0.96481   0.74457   0.00000  Uiso   1.00
O86    O     0.28608   0.84409   0.90423   0.00000  Uiso   1.00
N87    N     0.45691   0.20416   0.19486   0.00000  Uiso   1.00
N88    N     0.35726   0.81619   0.65056   0.00000  Uiso   1.00
N89    N     0.29067   0.73019   0.05175   0.00000  Uiso   1.00
N90    N     0.51033   0.31367   0.09930   0.00000  Uiso   1.00
N91    N     0.41067   0.92570   0.55500   0.00000  Uiso   1.00
N92    N     0.34409   0.83971   0.95619   0.00000  Uiso   1.00
C93    C     0.13642   0.07383   0.19258   0.00000  Uiso   1.00
C94    C     0.09765   0.99871   0.24697   0.00000  Uiso   1.00
C95    C     0.09480   0.87455   0.23946   0.00000  Uiso   1.00
C96    C     0.05658   0.82275   0.29521   0.00000  Uiso   1.00
C97    C     0.00156   0.69547   0.37033   0.00000  Uiso   1.00
C98    C     0.12511   0.16738   0.12137   0.00000  Uiso   1.00
C99    C     0.14535   0.18504   0.00825   0.00000  Uiso   1.00
C100   C     0.13025   0.27524   0.95828   0.00000  Uiso   1.00
C101   C     0.11788   0.40988   0.83842   0.00000  Uiso   1.00
C102   C     0.14346   0.14366   0.28641   0.00000  Uiso   1.00
C103   C     0.17914   0.14141   0.31205   0.00000  Uiso   1.00
C104   C     0.17948   0.21166   0.40101   0.00000  Uiso   1.00
C105   C     0.19560   0.30948   0.53739   0.00000  Uiso   1.00
C106   C     0.07360   0.20262   0.30496   0.00000  Uiso   1.00
C107   C     0.06353   0.06867   0.30801   0.00000  Uiso   1.00
C108   C     0.02530   0.01704   0.36379   0.00000  Uiso   1.00
C109   C     0.02239   0.89282   0.35636   0.00000  Uiso   1.00
C110   C     0.09099   0.23733   0.18240   0.00000  Uiso   1.00
C111   C     0.07585   0.32753   0.13259   0.00000  Uiso   1.00
C112   C     0.09607   0.34532   0.01943   0.00000  Uiso   1.00
C113   C     0.10933   0.21362   0.34745   0.00000  Uiso   1.00
C114   C     0.10963   0.28389   0.43638   0.00000  Uiso   1.00
C115   C     0.14530   0.28174   0.46215   0.00000  Uiso   1.00
H116   H     0.16299   0.01937   0.14506   0.00000  Uiso   1.00
H117   H     0.12121   0.82044   0.19220   0.00000  Uiso   1.00
H118   H     0.17176   0.13090   0.96104   0.00000  Uiso   1.00
H119   H     0.20553   0.08726   0.26479   0.00000  Uiso   1.00
H120   H     0.05985   0.63075   0.27136   0.00000  Uiso   1.00
H121   H     0.16644   0.28538   0.78395   0.00000  Uiso   1.00
H122   H     0.23766   0.19338   0.42446   0.00000  Uiso   1.00
H123   H     0.04703   0.25709   0.35248   0.00000  Uiso   1.00
H124   H     0.99890   0.07120   0.41102   0.00000  Uiso   1.00
H125   H     0.04945   0.38165   0.17985   0.00000  Uiso   1.00
H126   H     0.08322   0.33802   0.48360   0.00000  Uiso   1.00
H127   H     0.96057   0.83428   0.44895   0.00000  Uiso   1.00
H128   H     0.06717   0.48891   0.96154   0.00000  Uiso   1.00
H129   H     0.13838   0.39690   0.60205   0.00000  Uiso   1.00
O130   O     0.98063   0.60595   0.39489   0.00000  Uiso   1.00
O131   O     0.12048   0.46481   0.75543   0.00000  Uiso   1.00
O132   O     0.21392   0.34409   0.59577   0.00000  Uiso   1.00
N133   N     0.04309   0.70416   0.30514   0.00000  Uiso   1.00
N134   N     0.14274   0.31619   0.84944   0.00000  Uiso   1.00
N135   N     0.20933   0.23019   0.44825   0.00000  Uiso   1.00
N136   N     0.98967   0.81367   0.40070   0.00000  Uiso   1.00
N137   N     0.08933   0.42570   0.94500   0.00000  Uiso   1.00
N138   N     0.15591   0.33971   0.54381   0.00000  Uiso   1.00
C139   C     0.63642   0.57383   0.19258   0.00000  Uiso   1.00
C140   C     0.59765   0.49871   0.24697   0.00000  Uiso   1.00
C141   C     0.59480   0.37455   0.23946   0.00000  Uiso   1.00
C142   C     0.55658   0.32275   0.29521   0.00000  Uiso   1.00
C143   C     0.50156   0.19547   0.37033   0.00000  Uiso   1.00
C144   C     0.62511   0.66738   0.12137   0.00000  Uiso   1.00
C145   C     0.64535   0.68504   0.00825   0.00000  Uiso   1.00
C146   C     0.63025   0.77524   0.95828   0.00000  Uiso   1.00
C147   C     0.61788   0.90988   0.83842   0.00000  Uiso   1.00
C148   C     0.64346   0.64366   0.28641   0.00000  Uiso   1.00
C149   C     0.67914   0.64141   0.31205   0.00000  Uiso   1.00
C150   C     0.67948   0.71166   0.40101   0.00000  Uiso   1.00
C151   C     0.69560   0.80948   0.53739   0.00000  Uiso   1.00
C152   C     0.57360   0.70262   0.30496   0.00000  Uiso   1.00
C153   C     0.56353   0.56867   0.30801   0.00000  Uiso   1.00
C154   C     0.52530   0.51704   0.36379   0.00000  Uiso   1.00
C155   C     0.52239   0.39282   0.35636   0.00000  Uiso   1.00
C156   C     0.59099   0.73733   0.18240   0.00000  Uiso   1.00
C157   C     0.57585   0.82753   0.13259   0.00000  Uiso   1.00
C158   C     0.59607   0.84532   0.01943   0.00000  Uiso   1.00
C159   C     0.60933   0.71362   0.34745   0.00000  Uiso   1.00
C160   C     0.60963   0.78389   0.43638   0.00000  Uiso   1.00
C161   C     0.64530   0.78174   0.46215   0.00000  Uiso   1.00
H162   H     0.66299   0.51937   0.14506   0.00000  Uiso   1.00
H163   H     0.62121   0.32044   0.19220   0.00000  Uiso   1.00
H164   H     0.67176   0.63090   0.96104   0.00000  Uiso   1.00
H165   H     0.70553   0.58726   0.26479   0.00000  Uiso   1.00
H166   H     0.55985   0.13075   0.27136   0.00000  Uiso   1.00
H167   H     0.66644   0.78538   0.78395   0.00000  Uiso   1.00
H168   H     0.73766   0.69338   0.42446   0.00000  Uiso   1.00
H169   H     0.54703   0.75709   0.35248   0.00000  Uiso   1.00
H170   H     0.49890   0.57120   0.41102   0.00000  Uiso   1.00
H171   H     0.54945   0.88165   0.17985   0.00000  Uiso   1.00
H172   H     0.58322   0.83802   0.48360   0.00000  Uiso   1.00
H173   H     0.46057   0.33428   0.44895   0.00000  Uiso   1.00
H174   H     0.56717   0.98891   0.96154   0.00000  Uiso   1.00
H175   H     0.63838   0.89690   0.60205   0.00000  Uiso   1.00
O176   O     0.48063   0.10595   0.39489   0.00000  Uiso   1.00
O177   O     0.62048   0.96481   0.75543   0.00000  Uiso   1.00
O178   O     0.71392   0.84409   0.59577   0.00000  Uiso   1.00
N179   N     0.54309   0.20416   0.30514   0.00000  Uiso   1.00
N180   N     0.64274   0.81619   0.84944   0.00000  Uiso   1.00
N181   N     0.70933   0.73019   0.44825   0.00000  Uiso   1.00
N182   N     0.48967   0.31367   0.40070   0.00000  Uiso   1.00
N183   N     0.58933   0.92570   0.94500   0.00000  Uiso   1.00
N184   N     0.65591   0.83971   0.54381   0.00000  Uiso   1.00
C185   C     0.13642   0.92617   0.69258   0.00000  Uiso   1.00
C186   C     0.09765   0.00129   0.74697   0.00000  Uiso   1.00
C187   C     0.09480   0.12545   0.73946   0.00000  Uiso   1.00
C188   C     0.05658   0.17725   0.79521   0.00000  Uiso   1.00
C189   C     0.00156   0.30453   0.87033   0.00000  Uiso   1.00
C190   C     0.12511   0.83262   0.62137   0.00000  Uiso   1.00
C191   C     0.14535   0.81496   0.50825   0.00000  Uiso   1.00
C192   C     0.13025   0.72476   0.45828   0.00000  Uiso   1.00
C193   C     0.11788   0.59012   0.33842   0.00000  Uiso   1.00
C194   C     0.14346   0.85634   0.78641   0.00000  Uiso   1.00
C195   C     0.17914   0.85859   0.81205   0.00000  Uiso   1.00
C196   C     0.17948   0.78834   0.90101   0.00000  Uiso   1.00
C197   C     0.19560   0.69052   0.03739   0.00000  Uiso   1.00
C198   C     0.07360   0.79738   0.80496   0.00000  Uiso   1.00
C199   C     0.06353   0.93133   0.80801   0.00000  Uiso   1.00
C200   C     0.02530   0.98296   0.86379   0.00000  Uiso   1.00
C201   C     0.02239   0.10718   0.85636   0.00000  Uiso   1.00
C202   C     0.09099   0.76267   0.68240   0.00000  Uiso   1.00
C203   C     0.07585   0.67247   0.63259   0.00000  Uiso   1.00
C204   C     0.09607   0.65468   0.51943   0.00000  Uiso   1.00
C205   C     0.10933   0.78638   0.84745   0.00000  Uiso   1.00
C206   C     0.10963   0.71611   0.93638   0.00000  Uiso   1.00
C207   C     0.14530   0.71826   0.96215   0.00000  Uiso   1.00
H208   H     0.16299   0.98063   0.64506   0.00000  Uiso   1.00
H209   H     0.12121   0.17956   0.69220   0.00000  Uiso   1.00
H210   H     0.17176   0.86910   0.46104   0.00000  Uiso   1.00
H211   H     0.20553   0.91274   0.76479   0.00000  Uiso   1.00
H212   H     0.05985   0.36925   0.77136   0.00000  Uiso   1.00
H213   H     0.16644   0.71462   0.28395   0.00000  Uiso   1.00
H214   H     0.23766   0.80662   0.92446   0.00000  Uiso   1.00
H215   H     0.04703   0.74291   0.85248   0.00000  Uiso   1.00
H216   H     0.99890   0.92880   0.91102   0.00000  Uiso   1.00
H217   H     0.04945   0.61835   0.67985   0.00000  Uiso   1.00
H218   H     0.08322   0.66198   0.98360   0.00000  Uiso   1.00
H219   H     0.96057   0.16572   0.94895   0.00000  Uiso   1.00
H220   H     0.06717   0.51109   0.46154   0.00000  Uiso   1.00
H221   H     0.13838   0.60310   0.10205   0.00000  Uiso   1.00
O222   O     0.98063   0.39405   0.89489   0.00000  Uiso   1.00
O223   O     0.12048   0.53519   0.25543   0.00000  Uiso   1.00
O224   O     0.21392   0.65591   0.09577   0.00000  Uiso   1.00
N225   N     0.04309   0.29584   0.80514   0.00000  Uiso   1.00
N226   N     0.14274   0.68381   0.34944   0.00000  Uiso   1.00
N227   N     0.20933   0.76981   0.94825   0.00000  Uiso   1.00
N228   N     0.98967   0.18633   0.90070   0.00000  Uiso   1.00
N229   N     0.08933   0.57430   0.44500   0.00000  Uiso   1.00
N230   N     0.15591   0.66029   0.04381   0.00000  Uiso   1.00
C231   C     0.63642   0.42617   0.69258   0.00000  Uiso   1.00
C232   C     0.59765   0.50129   0.74697   0.00000  Uiso   1.00
C233   C     0.59480   0.62545   0.73946   0.00000  Uiso   1.00
C234   C     0.55658   0.67725   0.79521   0.00000  Uiso   1.00
C235   C     0.50156   0.80453   0.87033   0.00000  Uiso   1.00
C236   C     0.62511   0.33262   0.62137   0.00000  Uiso   1.00
C237   C     0.64535   0.31496   0.50825   0.00000  Uiso   1.00
C238   C     0.63025   0.22476   0.45828   0.00000  Uiso   1.00
C239   C     0.61788   0.09012   0.33842   0.00000  Uiso   1.00
C240   C     0.64346   0.35634   0.78641   0.00000  Uiso   1.00
C241   C     0.67914   0.35859   0.81205   0.00000  Uiso   1.00
C242   C     0.67948   0.28834   0.90101   0.00000  Uiso   1.00
C243   C     0.69560   0.19052   0.03739   0.00000  Uiso   1.00
C244   C     0.57360   0.29738   0.80496   0.00000  Uiso   1.00
C245   C     0.56353   0.43133   0.80801   0.00000  Uiso   1.00
C246   C     0.52530   0.48296   0.86379   0.00000  Uiso   1.00
C247   C     0.52239   0.60718   0.85636   0.00000  Uiso   1.00
C248   C     0.59099   0.26267   0.68240   0.00000  Uiso   1.00
C249   C     0.57585   0.17247   0.63259   0.00000  Uiso   1.00
C250   C     0.59607   0.15468   0.51943   0.00000  Uiso   1.00
C251   C     0.60933   0.28638   0.84745   0.00000  Uiso   1.00
C252   C     0.60963   0.21611   0.93638   0.00000  Uiso   1.00
C253   C     0.64530   0.21826   0.96215   0.00000  Uiso   1.00
H254   H     0.66299   0.48063   0.64506   0.00000  Uiso   1.00
H255   H     0.62121   0.67956   0.69220   0.00000  Uiso   1.00
H256   H     0.67176   0.36910   0.46104   0.00000  Uiso   1.00
H257   H     0.70553   0.41274   0.76479   0.00000  Uiso   1.00
H258   H     0.55985   0.86925   0.77136   0.00000  Uiso   1.00
H259   H     0.66644   0.21462   0.28395   0.00000  Uiso   1.00
H260   H     0.73766   0.30662   0.92446   0.00000  Uiso   1.00
H261   H     0.54703   0.24291   0.85248   0.00000  Uiso   1.00
H262   H     0.49890   0.42880   0.91102   0.00000  Uiso   1.00
H263   H     0.54945   0.11835   0.67985   0.00000  Uiso   1.00
H264   H     0.58322   0.16198   0.98360   0.00000  Uiso   1.00
H265   H     0.46057   0.66572   0.94895   0.00000  Uiso   1.00
H266   H     0.56717   0.01109   0.46154   0.00000  Uiso   1.00
H267   H     0.63838   0.10310   0.10205   0.00000  Uiso   1.00
O268   O     0.48063   0.89405   0.89489   0.00000  Uiso   1.00
O269   O     0.62048   0.03519   0.25543   0.00000  Uiso   1.00
O270   O     0.71392   0.15591   0.09577   0.00000  Uiso   1.00
N271   N     0.54309   0.79584   0.80514   0.00000  Uiso   1.00
N272   N     0.64274   0.18381   0.34944   0.00000  Uiso   1.00
N273   N     0.70933   0.26981   0.94825   0.00000  Uiso   1.00
N274   N     0.48967   0.68633   0.90070   0.00000  Uiso   1.00
N275   N     0.58933   0.07430   0.44500   0.00000  Uiso   1.00
N276   N     0.65591   0.16029   0.04381   0.00000  Uiso   1.00
C277   C     0.86358   0.92617   0.80742   0.00000  Uiso   1.00
C278   C     0.90235   0.00129   0.75303   0.00000  Uiso   1.00
C279   C     0.90520   0.12545   0.76054   0.00000  Uiso   1.00
C280   C     0.94342   0.17725   0.70479   0.00000  Uiso   1.00
C281   C     0.99844   0.30453   0.62967   0.00000  Uiso   1.00
C282   C     0.87489   0.83262   0.87863   0.00000  Uiso   1.00
C283   C     0.85465   0.81496   0.99175   0.00000  Uiso   1.00
C284   C     0.86975   0.72476   0.04172   0.00000  Uiso   1.00
C285   C     0.88212   0.59012   0.16158   0.00000  Uiso   1.00
C286   C     0.85654   0.85634   0.71359   0.00000  Uiso   1.00
C287   C     0.82086   0.85859   0.68795   0.00000  Uiso   1.00
C288   C     0.82052   0.78834   0.59899   0.00000  Uiso   1.00
C289   C     0.80440   0.69052   0.46261   0.00000  Uiso   1.00
C290   C     0.92640   0.79738   0.69504   0.00000  Uiso   1.00
C291   C     0.93647   0.93133   0.69199   0.00000  Uiso   1.00
C292   C     0.97470   0.98296   0.63621   0.00000  Uiso   1.00
C293   C     0.97761   0.10718   0.64364   0.00000  Uiso   1.00
C294   C     0.90901   0.76267   0.81760   0.00000  Uiso   1.00
C295   C     0.92415   0.67247   0.86741   0.00000  Uiso   1.00
C296   C     0.90393   0.65468   0.98057   0.00000  Uiso   1.00
C297   C     0.89067   0.78638   0.65255   0.00000  Uiso   1.00
C298   C     0.89037   0.71611   0.56362   0.00000  Uiso   1.00
C299   C     0.85470   0.71826   0.53785   0.00000  Uiso   1.00
H300   H     0.83701   0.98063   0.85494   0.00000  Uiso   1.00
H301   H     0.87879   0.17956   0.80780   0.00000  Uiso   1.00
H302   H     0.82824   0.86910   0.03896   0.00000  Uiso   1.00
H303   H     0.79447   0.91274   0.73521   0.00000  Uiso   1.00
H304   H     0.94015   0.36925   0.72864   0.00000  Uiso   1.00
H305   H     0.83356   0.71462   0.21605   0.00000  Uiso   1.00
H306   H     0.76234   0.80662   0.57554   0.00000  Uiso   1.00
H307   H     0.95297   0.74291   0.64752   0.00000  Uiso   1.00
H308   H     0.00110   0.92880   0.58898   0.00000  Uiso   1.00
H309   H     0.95055   0.61835   0.82015   0.00000  Uiso   1.00
H310   H     0.91678   0.66198   0.51640   0.00000  Uiso   1.00
H311   H     0.03943   0.16572   0.55105   0.00000  Uiso   1.00
H312   H     0.93283   0.51109   0.03846   0.00000  Uiso   1.00
H313   H     0.86162   0.60310   0.39795   0.00000  Uiso   1.00
O314   O     0.01937   0.39405   0.60511   0.00000  Uiso   1.00
O315   O     0.87952   0.53519   0.24457   0.00000  Uiso   1.00
O316   O     0.78608   0.65591   0.40423   0.00000  Uiso   1.00
N317   N     0.95691   0.29584   0.69486   0.00000  Uiso   1.00
N318   N     0.85726   0.68381   0.15056   0.00000  Uiso   1.00
N319   N     0.79067   0.76981   0.55175   0.00000  Uiso   1.00
N320   N     0.01033   0.18633   0.59930   0.00000  Uiso   1.00
N321   N     0.91067   0.57430   0.05500   0.00000  Uiso   1.00
N322   N     0.84409   0.66029   0.45619   0.00000  Uiso   1.00
C323   C     0.36358   0.42617   0.80742   0.00000  Uiso   1.00
C324   C     0.40235   0.50129   0.75303   0.00000  Uiso   1.00
C325   C     0.40520   0.62545   0.76054   0.00000  Uiso   1.00
C326   C     0.44342   0.67725   0.70479   0.00000  Uiso   1.00
C327   C     0.49844   0.80453   0.62967   0.00000  Uiso   1.00
C328   C     0.37489   0.33262   0.87863   0.00000  Uiso   1.00
C329   C     0.35465   0.31496   0.99175   0.00000  Uiso   1.00
C330   C     0.36975   0.22476   0.04172   0.00000  Uiso   1.00
C331   C     0.38212   0.09012   0.16158   0.00000  Uiso   1.00
C332   C     0.35654   0.35634   0.71359   0.00000  Uiso   1.00
C333   C     0.32086   0.35859   0.68795   0.00000  Uiso   1.00
C334   C     0.32052   0.28834   0.59899   0.00000  Uiso   1.00
C335   C     0.30440   0.19052   0.46261   0.00000  Uiso   1.00
C336   C     0.42640   0.29738   0.69504   0.00000  Uiso   1.00
C337   C     0.43647   0.43133   0.69199   0.00000  Uiso   1.00
C338   C     0.47470   0.48296   0.63621   0.00000  Uiso   1.00
C339   C     0.47761   0.60718   0.64364   0.00000  Uiso   1.00
C340   C     0.40901   0.26267   0.81760   0.00000  Uiso   1.00
C341   C     0.42415   0.17247   0.86741   0.00000  Uiso   1.00
C342   C     0.40393   0.15468   0.98057   0.00000  Uiso   1.00
C343   C     0.39067   0.28638   0.65255   0.00000  Uiso   1.00
C344   C     0.39037   0.21611   0.56362   0.00000  Uiso   1.00
C345   C     0.35470   0.21826   0.53785   0.00000  Uiso   1.00
H346   H     0.33701   0.48063   0.85494   0.00000  Uiso   1.00
H347   H     0.37879   0.67956   0.80780   0.00000  Uiso   1.00
H348   H     0.32824   0.36910   0.03896   0.00000  Uiso   1.00
H349   H     0.29447   0.41274   0.73521   0.00000  Uiso   1.00
H350   H     0.44015   0.86925   0.72864   0.00000  Uiso   1.00
H351   H     0.33356   0.21462   0.21605   0.00000  Uiso   1.00
H352   H     0.26234   0.30662   0.57554   0.00000  Uiso   1.00
H353   H     0.45297   0.24291   0.64752   0.00000  Uiso   1.00
H354   H     0.50110   0.42880   0.58898   0.00000  Uiso   1.00
H355   H     0.45055   0.11835   0.82015   0.00000  Uiso   1.00
H356   H     0.41678   0.16198   0.51640   0.00000  Uiso   1.00
H357   H     0.53943   0.66572   0.55105   0.00000  Uiso   1.00
H358   H     0.43283   0.01109   0.03846   0.00000  Uiso   1.00
H359   H     0.36162   0.10310   0.39795   0.00000  Uiso   1.00
O360   O     0.51937   0.89405   0.60511   0.00000  Uiso   1.00
O361   O     0.37952   0.03519   0.24457   0.00000  Uiso   1.00
O362   O     0.28608   0.15591   0.40423   0.00000  Uiso   1.00
N363   N     0.45691   0.79584   0.69486   0.00000  Uiso   1.00
N364   N     0.35726   0.18381   0.15056   0.00000  Uiso   1.00
N365   N     0.29067   0.26981   0.55175   0.00000  Uiso   1.00
N366   N     0.51033   0.68633   0.59930   0.00000  Uiso   1.00
N367   N     0.41067   0.07430   0.05500   0.00000  Uiso   1.00
N368   N     0.34409   0.16029   0.45619   0.00000  Uiso   1.00
