data_job_00856
_audit_creation_date              2018-12-19
_audit_creation_method            'Materials Studio'
_symmetry_space_group_name_H-M    'P1'
_symmetry_Int_Tables_number       1
_symmetry_cell_setting            triclinic
loop_
_symmetry_equiv_pos_as_xyz
  x,y,z
_cell_length_a                    8.3733
_cell_length_b                    12.4033
_cell_length_c                    12.8885
_cell_angle_alpha                 111.0440
_cell_angle_beta                  86.6321
_cell_angle_gamma                 91.3882
loop_
_atom_site_label
_atom_site_type_symbol
_atom_site_fract_x
_atom_site_fract_y
_atom_site_fract_z
_atom_site_U_iso_or_equiv
_atom_site_adp_type
_atom_site_occupancy
C1     C     0.41072   0.72643   0.27202   0.00000  Uiso   1.00
C2     C     0.39409   0.74768   0.39626   0.00000  Uiso   1.00
C3     C     0.51550   0.78383   0.47013   0.00000  Uiso   1.00
C4     C     0.47613   0.79827   0.58045   0.00000  Uiso   1.00
C5     C     0.47394   0.83439   0.76802   0.00000  Uiso   1.00
C6     C     0.35611   0.60226   0.21297   0.00000  Uiso   1.00
C7     C     0.44559   0.51615   0.13272   0.00000  Uiso   1.00
C8     C     0.37423   0.40817   0.08875   0.00000  Uiso   1.00
C9     C     0.31304   0.21855   0.99169   0.00000  Uiso   1.00
C10    C     0.28609   0.80286   0.25109   0.00000  Uiso   1.00
C11    C     0.31667   0.88541   0.20285   0.00000  Uiso   1.00
C12    C     0.18635   0.94631   0.19094   0.00000  Uiso   1.00
C13    C     0.01643   0.06816   0.15307   0.00000  Uiso   1.00
C14    C     0.12489   0.68778   0.33661   0.00000  Uiso   1.00
C15    C     0.23884   0.72668   0.43134   0.00000  Uiso   1.00
C16    C     0.19927   0.74107   0.54158   0.00000  Uiso   1.00
C17    C     0.32060   0.77724   0.61560   0.00000  Uiso   1.00
C18    C     0.20087   0.58126   0.24805   0.00000  Uiso   1.00
C19    C     0.12936   0.47339   0.20418   0.00000  Uiso   1.00
C20    C     0.21870   0.38714   0.12389   0.00000  Uiso   1.00
C21    C     0.13084   0.78187   0.28617   0.00000  Uiso   1.00
C22    C     0.00044   0.84265   0.27432   0.00000  Uiso   1.00
C23    C     0.03082   0.92528   0.22608   0.00000  Uiso   1.00
H24    H     0.53158   0.74277   0.24471   0.00000  Uiso   1.00
H25    H     0.63563   0.80006   0.44294   0.00000  Uiso   1.00
H26    H     0.56572   0.53243   0.10558   0.00000  Uiso   1.00
H27    H     0.43682   0.90163   0.17572   0.00000  Uiso   1.00
H28    H     0.68254   0.85428   0.67819   0.00000  Uiso   1.00
H29    H     0.53510   0.28997   0.96682   0.00000  Uiso   1.00
H30    H     0.26330   0.06851   0.11470   0.00000  Uiso   1.00
H31    H     0.00402   0.67143   0.36392   0.00000  Uiso   1.00
H32    H     0.07912   0.72481   0.56871   0.00000  Uiso   1.00
H33    H     0.00921   0.45717   0.23134   0.00000  Uiso   1.00
H34    H     0.88032   0.82638   0.30148   0.00000  Uiso   1.00
H35    H     0.23085   0.79320   0.78026   0.00000  Uiso   1.00
H36    H     0.08342   0.22889   0.06888   0.00000  Uiso   1.00
H37    H     0.81162   0.00743   0.21677   0.00000  Uiso   1.00
O38    O     0.51563   0.86010   0.86178   0.00000  Uiso   1.00
O39    O     0.32219   0.11976   0.92848   0.00000  Uiso   1.00
O40    O     0.96560   0.14118   0.12250   0.00000  Uiso   1.00
N41    N     0.56592   0.83260   0.67411   0.00000  Uiso   1.00
N42    N     0.42809   0.30500   0.00904   0.00000  Uiso   1.00
N43    N     0.17397   0.03284   0.14727   0.00000  Uiso   1.00
N44    N     0.32287   0.79973   0.72904   0.00000  Uiso   1.00
N45    N     0.18504   0.27213   0.06396   0.00000  Uiso   1.00
N46    N     0.93092   0.99998   0.20219   0.00000  Uiso   1.00
C47    C     0.58928   0.27357   0.72798   0.00000  Uiso   1.00
C48    C     0.60591   0.25232   0.60374   0.00000  Uiso   1.00
C49    C     0.48450   0.21617   0.52987   0.00000  Uiso   1.00
C50    C     0.52387   0.20173   0.41955   0.00000  Uiso   1.00
C51    C     0.52606   0.16561   0.23198   0.00000  Uiso   1.00
C52    C     0.64389   0.39774   0.78703   0.00000  Uiso   1.00
C53    C     0.55441   0.48385   0.86728   0.00000  Uiso   1.00
C54    C     0.62577   0.59183   0.91125   0.00000  Uiso   1.00
C55    C     0.68696   0.78145   0.00831   0.00000  Uiso   1.00
C56    C     0.71391   0.19714   0.74891   0.00000  Uiso   1.00
C57    C     0.68333   0.11459   0.79715   0.00000  Uiso   1.00
C58    C     0.81365   0.05369   0.80906   0.00000  Uiso   1.00
C59    C     0.98357   0.93184   0.84693   0.00000  Uiso   1.00
C60    C     0.87511   0.31222   0.66339   0.00000  Uiso   1.00
C61    C     0.76116   0.27332   0.56866   0.00000  Uiso   1.00
C62    C     0.80073   0.25893   0.45842   0.00000  Uiso   1.00
C63    C     0.67940   0.22276   0.38440   0.00000  Uiso   1.00
C64    C     0.79913   0.41874   0.75195   0.00000  Uiso   1.00
C65    C     0.87064   0.52661   0.79582   0.00000  Uiso   1.00
C66    C     0.78130   0.61286   0.87611   0.00000  Uiso   1.00
C67    C     0.86916   0.21813   0.71383   0.00000  Uiso   1.00
C68    C     0.99956   0.15735   0.72568   0.00000  Uiso   1.00
C69    C     0.96918   0.07472   0.77392   0.00000  Uiso   1.00
H70    H     0.46842   0.25723   0.75529   0.00000  Uiso   1.00
H71    H     0.36437   0.19994   0.55706   0.00000  Uiso   1.00
H72    H     0.43428   0.46757   0.89442   0.00000  Uiso   1.00
H73    H     0.56318   0.09837   0.82428   0.00000  Uiso   1.00
H74    H     0.31746   0.14572   0.32181   0.00000  Uiso   1.00
H75    H     0.46490   0.71003   0.03318   0.00000  Uiso   1.00
H76    H     0.73670   0.93149   0.88530   0.00000  Uiso   1.00
H77    H     0.99598   0.32857   0.63608   0.00000  Uiso   1.00
H78    H     0.92088   0.27519   0.43129   0.00000  Uiso   1.00
H79    H     0.99079   0.54283   0.76866   0.00000  Uiso   1.00
H80    H     0.11968   0.17362   0.69852   0.00000  Uiso   1.00
H81    H     0.76915   0.20680   0.21974   0.00000  Uiso   1.00
H82    H     0.91658   0.77111   0.93112   0.00000  Uiso   1.00
H83    H     0.18838   0.99257   0.78323   0.00000  Uiso   1.00
O84    O     0.48437   0.13990   0.13822   0.00000  Uiso   1.00
O85    O     0.67781   0.88024   0.07152   0.00000  Uiso   1.00
O86    O     0.03440   0.85882   0.87750   0.00000  Uiso   1.00
N87    N     0.43408   0.16740   0.32589   0.00000  Uiso   1.00
N88    N     0.57191   0.69500   0.99096   0.00000  Uiso   1.00
N89    N     0.82603   0.96716   0.85273   0.00000  Uiso   1.00
N90    N     0.67713   0.20027   0.27096   0.00000  Uiso   1.00
N91    N     0.81496   0.72787   0.93604   0.00000  Uiso   1.00
N92    N     0.06908   0.00002   0.79781   0.00000  Uiso   1.00
