data_job_02705
_audit_creation_date              2018-12-19
_audit_creation_method            'Materials Studio'
_symmetry_space_group_name_H-M    'P1'
_symmetry_Int_Tables_number       1
_symmetry_cell_setting            triclinic
loop_
_symmetry_equiv_pos_as_xyz
  x,y,z
_cell_length_a                    16.8374
_cell_length_b                    10.0373
_cell_length_c                    29.8360
_cell_angle_alpha                 90.0000
_cell_angle_beta                  143.0239
_cell_angle_gamma                 90.0000
loop_
_atom_site_label
_atom_site_type_symbol
_atom_site_fract_x
_atom_site_fract_y
_atom_site_fract_z
_atom_site_U_iso_or_equiv
_atom_site_adp_type
_atom_site_occupancy
C1     C     0.68302   0.51436   0.19738   0.00000  Uiso   1.00
C2     C     0.73950   0.59425   0.26186   0.00000  Uiso   1.00
C3     C     0.87258   0.61020   0.33156   0.00000  Uiso   1.00
C4     C     0.90408   0.68704   0.38294   0.00000  Uiso   1.00
C5     C     0.00670   0.80210   0.48578   0.00000  Uiso   1.00
C6     C     0.58970   0.41228   0.17603   0.00000  Uiso   1.00
C7     C     0.59683   0.27524   0.17355   0.00000  Uiso   1.00
C8     C     0.50221   0.19890   0.15268   0.00000  Uiso   1.00
C9     C     0.37220   0.03146   0.12221   0.00000  Uiso   1.00
C10    C     0.59602   0.61061   0.13187   0.00000  Uiso   1.00
C11    C     0.60844   0.64031   0.09223   0.00000  Uiso   1.00
C12    C     0.51913   0.73093   0.03416   0.00000  Uiso   1.00
C13    C     0.39894   0.87143   0.93511   0.00000  Uiso   1.00
C14    C     0.50230   0.62246   0.16471   0.00000  Uiso   1.00
C15    C     0.64133   0.65296   0.24412   0.00000  Uiso   1.00
C16    C     0.67263   0.72980   0.29541   0.00000  Uiso   1.00
C17    C     0.80574   0.74586   0.36517   0.00000  Uiso   1.00
C18    C     0.49154   0.47099   0.15829   0.00000  Uiso   1.00
C19    C     0.39688   0.39484   0.13741   0.00000  Uiso   1.00
C20    C     0.40387   0.25772   0.13490   0.00000  Uiso   1.00
C21    C     0.49786   0.66933   0.11412   0.00000  Uiso   1.00
C22    C     0.40850   0.75991   0.05609   0.00000  Uiso   1.00
C23    C     0.42078   0.78975   0.01638   0.00000  Uiso   1.00
H24    H     0.75944   0.46864   0.21120   0.00000  Uiso   1.00
H25    H     0.94852   0.56473   0.34527   0.00000  Uiso   1.00
H26    H     0.67280   0.22983   0.18728   0.00000  Uiso   1.00
H27    H     0.68442   0.59485   0.10598   0.00000  Uiso   1.00
H28    H     0.11486   0.69713   0.48610   0.00000  Uiso   1.00
H29    H     0.53345   0.99097   0.15295   0.00000  Uiso   1.00
H30    H     0.55796   0.76068   0.98150   0.00000  Uiso   1.00
H31    H     0.42587   0.66817   0.15089   0.00000  Uiso   1.00
H32    H     0.59664   0.77522   0.28166   0.00000  Uiso   1.00
H33    H     0.32092   0.44031   0.12367   0.00000  Uiso   1.00
H34    H     0.33254   0.80533   0.04237   0.00000  Uiso   1.00
H35    H     0.82926   0.86796   0.43447   0.00000  Uiso   1.00
H36    H     0.24786   0.16180   0.10132   0.00000  Uiso   1.00
H37    H     0.27236   0.93151   0.92987   0.00000  Uiso   1.00
O38    O     0.09042   0.84933   0.54740   0.00000  Uiso   1.00
O39    O     0.32763   0.92288   0.11031   0.00000  Uiso   1.00
O40    O     0.35978   0.93272   0.88538   0.00000  Uiso   1.00
N41    N     0.02421   0.72266   0.45600   0.00000  Uiso   1.00
N42    N     0.48064   0.06244   0.14453   0.00000  Uiso   1.00
N43    N     0.50353   0.78203   0.98423   0.00000  Uiso   1.00
N44    N     0.87053   0.81459   0.42822   0.00000  Uiso   1.00
N45    N     0.32697   0.15437   0.11675   0.00000  Uiso   1.00
N46    N     0.34985   0.87396   0.95645   0.00000  Uiso   1.00
C47    C     0.31698   0.51436   0.30262   0.00000  Uiso   1.00
C48    C     0.26050   0.59425   0.23814   0.00000  Uiso   1.00
C49    C     0.12742   0.61020   0.16844   0.00000  Uiso   1.00
C50    C     0.09592   0.68704   0.11706   0.00000  Uiso   1.00
C51    C     0.99330   0.80210   0.01422   0.00000  Uiso   1.00
C52    C     0.41030   0.41228   0.32397   0.00000  Uiso   1.00
C53    C     0.40317   0.27524   0.32645   0.00000  Uiso   1.00
C54    C     0.49779   0.19890   0.34732   0.00000  Uiso   1.00
C55    C     0.62780   0.03146   0.37779   0.00000  Uiso   1.00
C56    C     0.40398   0.61061   0.36813   0.00000  Uiso   1.00
C57    C     0.39156   0.64031   0.40777   0.00000  Uiso   1.00
C58    C     0.48087   0.73093   0.46584   0.00000  Uiso   1.00
C59    C     0.60106   0.87143   0.56489   0.00000  Uiso   1.00
C60    C     0.49770   0.62246   0.33529   0.00000  Uiso   1.00
C61    C     0.35867   0.65296   0.25588   0.00000  Uiso   1.00
C62    C     0.32737   0.72980   0.20459   0.00000  Uiso   1.00
C63    C     0.19426   0.74586   0.13483   0.00000  Uiso   1.00
C64    C     0.50846   0.47099   0.34171   0.00000  Uiso   1.00
C65    C     0.60312   0.39484   0.36259   0.00000  Uiso   1.00
C66    C     0.59613   0.25772   0.36510   0.00000  Uiso   1.00
C67    C     0.50214   0.66933   0.38588   0.00000  Uiso   1.00
C68    C     0.59150   0.75991   0.44391   0.00000  Uiso   1.00
C69    C     0.57922   0.78975   0.48362   0.00000  Uiso   1.00
H70    H     0.24056   0.46864   0.28880   0.00000  Uiso   1.00
H71    H     0.05148   0.56473   0.15473   0.00000  Uiso   1.00
H72    H     0.32720   0.22983   0.31272   0.00000  Uiso   1.00
H73    H     0.31558   0.59485   0.39402   0.00000  Uiso   1.00
H74    H     0.88514   0.69713   0.01390   0.00000  Uiso   1.00
H75    H     0.46655   0.99097   0.34705   0.00000  Uiso   1.00
H76    H     0.44204   0.76068   0.51850   0.00000  Uiso   1.00
H77    H     0.57413   0.66817   0.34911   0.00000  Uiso   1.00
H78    H     0.40336   0.77522   0.21834   0.00000  Uiso   1.00
H79    H     0.67908   0.44031   0.37633   0.00000  Uiso   1.00
H80    H     0.66746   0.80533   0.45763   0.00000  Uiso   1.00
H81    H     0.17074   0.86796   0.06553   0.00000  Uiso   1.00
H82    H     0.75214   0.16180   0.39868   0.00000  Uiso   1.00
H83    H     0.72764   0.93151   0.57013   0.00000  Uiso   1.00
O84    O     0.90958   0.84933   0.95260   0.00000  Uiso   1.00
O85    O     0.67237   0.92288   0.38969   0.00000  Uiso   1.00
O86    O     0.64022   0.93272   0.61462   0.00000  Uiso   1.00
N87    N     0.97579   0.72266   0.04400   0.00000  Uiso   1.00
N88    N     0.51936   0.06244   0.35547   0.00000  Uiso   1.00
N89    N     0.49647   0.78203   0.51577   0.00000  Uiso   1.00
N90    N     0.12947   0.81459   0.07178   0.00000  Uiso   1.00
N91    N     0.67303   0.15437   0.38325   0.00000  Uiso   1.00
N92    N     0.65015   0.87396   0.54355   0.00000  Uiso   1.00
C93    C     0.31698   0.48564   0.80262   0.00000  Uiso   1.00
C94    C     0.26050   0.40575   0.73814   0.00000  Uiso   1.00
C95    C     0.12742   0.38980   0.66844   0.00000  Uiso   1.00
C96    C     0.09592   0.31296   0.61706   0.00000  Uiso   1.00
C97    C     0.99330   0.19790   0.51422   0.00000  Uiso   1.00
C98    C     0.41030   0.58772   0.82397   0.00000  Uiso   1.00
C99    C     0.40317   0.72476   0.82645   0.00000  Uiso   1.00
C100   C     0.49779   0.80110   0.84732   0.00000  Uiso   1.00
C101   C     0.62780   0.96854   0.87779   0.00000  Uiso   1.00
C102   C     0.40398   0.38939   0.86813   0.00000  Uiso   1.00
C103   C     0.39156   0.35969   0.90777   0.00000  Uiso   1.00
C104   C     0.48087   0.26907   0.96584   0.00000  Uiso   1.00
C105   C     0.60106   0.12857   0.06489   0.00000  Uiso   1.00
C106   C     0.49770   0.37754   0.83529   0.00000  Uiso   1.00
C107   C     0.35867   0.34704   0.75588   0.00000  Uiso   1.00
C108   C     0.32737   0.27020   0.70459   0.00000  Uiso   1.00
C109   C     0.19426   0.25414   0.63483   0.00000  Uiso   1.00
C110   C     0.50846   0.52901   0.84171   0.00000  Uiso   1.00
C111   C     0.60312   0.60516   0.86259   0.00000  Uiso   1.00
C112   C     0.59613   0.74228   0.86510   0.00000  Uiso   1.00
C113   C     0.50214   0.33067   0.88588   0.00000  Uiso   1.00
C114   C     0.59150   0.24009   0.94391   0.00000  Uiso   1.00
C115   C     0.57922   0.21025   0.98362   0.00000  Uiso   1.00
H116   H     0.24056   0.53136   0.78880   0.00000  Uiso   1.00
H117   H     0.05148   0.43527   0.65473   0.00000  Uiso   1.00
H118   H     0.32720   0.77017   0.81272   0.00000  Uiso   1.00
H119   H     0.31558   0.40515   0.89402   0.00000  Uiso   1.00
H120   H     0.88514   0.30287   0.51390   0.00000  Uiso   1.00
H121   H     0.46655   0.00903   0.84705   0.00000  Uiso   1.00
H122   H     0.44204   0.23932   0.01850   0.00000  Uiso   1.00
H123   H     0.57413   0.33183   0.84911   0.00000  Uiso   1.00
H124   H     0.40336   0.22478   0.71834   0.00000  Uiso   1.00
H125   H     0.67908   0.55969   0.87633   0.00000  Uiso   1.00
H126   H     0.66746   0.19467   0.95763   0.00000  Uiso   1.00
H127   H     0.17074   0.13204   0.56553   0.00000  Uiso   1.00
H128   H     0.75214   0.83820   0.89868   0.00000  Uiso   1.00
H129   H     0.72764   0.06849   0.07013   0.00000  Uiso   1.00
O130   O     0.90958   0.15067   0.45260   0.00000  Uiso   1.00
O131   O     0.67237   0.07712   0.88969   0.00000  Uiso   1.00
O132   O     0.64022   0.06728   0.11462   0.00000  Uiso   1.00
N133   N     0.97579   0.27734   0.54400   0.00000  Uiso   1.00
N134   N     0.51936   0.93756   0.85547   0.00000  Uiso   1.00
N135   N     0.49647   0.21797   0.01577   0.00000  Uiso   1.00
N136   N     0.12947   0.18541   0.57178   0.00000  Uiso   1.00
N137   N     0.67303   0.84563   0.88325   0.00000  Uiso   1.00
N138   N     0.65015   0.12604   0.04355   0.00000  Uiso   1.00
C139   C     0.68302   0.48564   0.69738   0.00000  Uiso   1.00
C140   C     0.73950   0.40575   0.76186   0.00000  Uiso   1.00
C141   C     0.87258   0.38980   0.83156   0.00000  Uiso   1.00
C142   C     0.90408   0.31296   0.88294   0.00000  Uiso   1.00
C143   C     0.00670   0.19790   0.98578   0.00000  Uiso   1.00
C144   C     0.58970   0.58772   0.67603   0.00000  Uiso   1.00
C145   C     0.59683   0.72476   0.67355   0.00000  Uiso   1.00
C146   C     0.50221   0.80110   0.65268   0.00000  Uiso   1.00
C147   C     0.37220   0.96854   0.62221   0.00000  Uiso   1.00
C148   C     0.59602   0.38939   0.63187   0.00000  Uiso   1.00
C149   C     0.60844   0.35969   0.59223   0.00000  Uiso   1.00
C150   C     0.51913   0.26907   0.53416   0.00000  Uiso   1.00
C151   C     0.39894   0.12857   0.43511   0.00000  Uiso   1.00
C152   C     0.50230   0.37754   0.66471   0.00000  Uiso   1.00
C153   C     0.64133   0.34704   0.74412   0.00000  Uiso   1.00
C154   C     0.67263   0.27020   0.79541   0.00000  Uiso   1.00
C155   C     0.80574   0.25414   0.86517   0.00000  Uiso   1.00
C156   C     0.49154   0.52901   0.65829   0.00000  Uiso   1.00
C157   C     0.39688   0.60516   0.63741   0.00000  Uiso   1.00
C158   C     0.40387   0.74228   0.63490   0.00000  Uiso   1.00
C159   C     0.49786   0.33067   0.61412   0.00000  Uiso   1.00
C160   C     0.40850   0.24009   0.55609   0.00000  Uiso   1.00
C161   C     0.42078   0.21025   0.51638   0.00000  Uiso   1.00
H162   H     0.75944   0.53136   0.71120   0.00000  Uiso   1.00
H163   H     0.94852   0.43527   0.84527   0.00000  Uiso   1.00
H164   H     0.67280   0.77017   0.68728   0.00000  Uiso   1.00
H165   H     0.68442   0.40515   0.60598   0.00000  Uiso   1.00
H166   H     0.11486   0.30287   0.98610   0.00000  Uiso   1.00
H167   H     0.53345   0.00903   0.65295   0.00000  Uiso   1.00
H168   H     0.55796   0.23932   0.48150   0.00000  Uiso   1.00
H169   H     0.42587   0.33183   0.65089   0.00000  Uiso   1.00
H170   H     0.59664   0.22478   0.78166   0.00000  Uiso   1.00
H171   H     0.32092   0.55969   0.62367   0.00000  Uiso   1.00
H172   H     0.33254   0.19467   0.54237   0.00000  Uiso   1.00
H173   H     0.82926   0.13204   0.93447   0.00000  Uiso   1.00
H174   H     0.24786   0.83820   0.60132   0.00000  Uiso   1.00
H175   H     0.27236   0.06849   0.42987   0.00000  Uiso   1.00
O176   O     0.09042   0.15067   0.04740   0.00000  Uiso   1.00
O177   O     0.32763   0.07712   0.61031   0.00000  Uiso   1.00
O178   O     0.35978   0.06728   0.38538   0.00000  Uiso   1.00
N179   N     0.02421   0.27734   0.95600   0.00000  Uiso   1.00
N180   N     0.48064   0.93756   0.64453   0.00000  Uiso   1.00
N181   N     0.50353   0.21797   0.48423   0.00000  Uiso   1.00
N182   N     0.87053   0.18541   0.92822   0.00000  Uiso   1.00
N183   N     0.32697   0.84563   0.61675   0.00000  Uiso   1.00
N184   N     0.34985   0.12604   0.45645   0.00000  Uiso   1.00
