data_job_05392
_audit_creation_date              2018-12-19
_audit_creation_method            'Materials Studio'
_symmetry_space_group_name_H-M    'P1'
_symmetry_Int_Tables_number       1
_symmetry_cell_setting            triclinic
loop_
_symmetry_equiv_pos_as_xyz
  x,y,z
_cell_length_a                    10.5624
_cell_length_b                    22.4607
_cell_length_c                    20.9911
_cell_angle_alpha                 90.0000
_cell_angle_beta                  90.0000
_cell_angle_gamma                 90.0000
loop_
_atom_site_label
_atom_site_type_symbol
_atom_site_fract_x
_atom_site_fract_y
_atom_site_fract_z
_atom_site_U_iso_or_equiv
_atom_site_adp_type
_atom_site_occupancy
C1     C     0.73969   0.90211   0.07464   0.00000  Uiso   1.00
C2     C     0.59870   0.89176   0.06360   0.00000  Uiso   1.00
C3     C     0.53599   0.89776   0.00586   0.00000  Uiso   1.00
C4     C     0.40682   0.88630   0.00565   0.00000  Uiso   1.00
C5     C     0.19763   0.87283   0.98007   0.00000  Uiso   1.00
C6     C     0.74877   0.94879   0.12719   0.00000  Uiso   1.00
C7     C     0.81226   0.00274   0.12292   0.00000  Uiso   1.00
C8     C     0.80944   0.03929   0.17625   0.00000  Uiso   1.00
C9     C     0.83332   0.11433   0.24940   0.00000  Uiso   1.00
C10    C     0.79081   0.84452   0.10324   0.00000  Uiso   1.00
C11    C     0.88967   0.81080   0.07884   0.00000  Uiso   1.00
C12    C     0.92226   0.75956   0.11201   0.00000  Uiso   1.00
C13    C     0.01141   0.67271   0.14798   0.00000  Uiso   1.00
C14    C     0.62182   0.87108   0.17695   0.00000  Uiso   1.00
C15    C     0.53468   0.87490   0.11917   0.00000  Uiso   1.00
C16    C     0.40558   0.86343   0.11905   0.00000  Uiso   1.00
C17    C     0.34268   0.86942   0.06132   0.00000  Uiso   1.00
C18    C     0.68475   0.93194   0.18276   0.00000  Uiso   1.00
C19    C     0.68185   0.96841   0.23611   0.00000  Uiso   1.00
C20    C     0.74530   0.02240   0.23192   0.00000  Uiso   1.00
C21    C     0.72679   0.82766   0.15881   0.00000  Uiso   1.00
C22    C     0.75924   0.77647   0.19203   0.00000  Uiso   1.00
C23    C     0.85812   0.74268   0.16768   0.00000  Uiso   1.00
H24    H     0.78954   0.91523   0.03138   0.00000  Uiso   1.00
H25    H     0.58557   0.91081   0.96287   0.00000  Uiso   1.00
H26    H     0.86181   0.01577   0.07992   0.00000  Uiso   1.00
H27    H     0.93919   0.82386   0.03584   0.00000  Uiso   1.00
H28    H     0.33119   0.89850   0.91142   0.00000  Uiso   1.00
H29    H     0.91368   0.11980   0.15822   0.00000  Uiso   1.00
H30    H     0.07688   0.71512   0.06529   0.00000  Uiso   1.00
H31    H     0.57197   0.85795   0.22021   0.00000  Uiso   1.00
H32    H     0.35606   0.85039   0.16206   0.00000  Uiso   1.00
H33    H     0.63229   0.95535   0.27910   0.00000  Uiso   1.00
H34    H     0.70968   0.76344   0.23503   0.00000  Uiso   1.00
H35    H     0.14491   0.84946   0.07309   0.00000  Uiso   1.00
H36    H     0.72741   0.07076   0.31990   0.00000  Uiso   1.00
H37    H     0.89059   0.66608   0.22695   0.00000  Uiso   1.00
O38    O     0.09993   0.87006   0.95060   0.00000  Uiso   1.00
O39    O     0.86417   0.16039   0.27440   0.00000  Uiso   1.00
O40    O     0.07826   0.62945   0.15246   0.00000  Uiso   1.00
N41    N     0.31698   0.88799   0.95745   0.00000  Uiso   1.00
N42    N     0.86157   0.09489   0.18819   0.00000  Uiso   1.00
N43    N     0.01416   0.71655   0.10131   0.00000  Uiso   1.00
N44    N     0.21675   0.86160   0.04444   0.00000  Uiso   1.00
N45    N     0.76133   0.06850   0.27518   0.00000  Uiso   1.00
N46    N     0.91392   0.69017   0.18830   0.00000  Uiso   1.00
C47    C     0.76031   0.59789   0.57464   0.00000  Uiso   1.00
C48    C     0.90130   0.60824   0.56360   0.00000  Uiso   1.00
C49    C     0.96401   0.60224   0.50586   0.00000  Uiso   1.00
C50    C     0.09318   0.61370   0.50565   0.00000  Uiso   1.00
C51    C     0.30237   0.62717   0.48007   0.00000  Uiso   1.00
C52    C     0.75123   0.55121   0.62719   0.00000  Uiso   1.00
C53    C     0.68774   0.49726   0.62292   0.00000  Uiso   1.00
C54    C     0.69056   0.46071   0.67625   0.00000  Uiso   1.00
C55    C     0.66668   0.38567   0.74940   0.00000  Uiso   1.00
C56    C     0.70919   0.65548   0.60324   0.00000  Uiso   1.00
C57    C     0.61033   0.68920   0.57884   0.00000  Uiso   1.00
C58    C     0.57774   0.74044   0.61201   0.00000  Uiso   1.00
C59    C     0.48859   0.82729   0.64798   0.00000  Uiso   1.00
C60    C     0.87818   0.62892   0.67695   0.00000  Uiso   1.00
C61    C     0.96532   0.62510   0.61917   0.00000  Uiso   1.00
C62    C     0.09442   0.63657   0.61905   0.00000  Uiso   1.00
C63    C     0.15732   0.63058   0.56132   0.00000  Uiso   1.00
C64    C     0.81525   0.56806   0.68276   0.00000  Uiso   1.00
C65    C     0.81815   0.53159   0.73611   0.00000  Uiso   1.00
C66    C     0.75470   0.47760   0.73192   0.00000  Uiso   1.00
C67    C     0.77321   0.67234   0.65881   0.00000  Uiso   1.00
C68    C     0.74076   0.72353   0.69203   0.00000  Uiso   1.00
C69    C     0.64188   0.75732   0.66768   0.00000  Uiso   1.00
H70    H     0.71046   0.58477   0.53138   0.00000  Uiso   1.00
H71    H     0.91443   0.58919   0.46287   0.00000  Uiso   1.00
H72    H     0.63819   0.48423   0.57992   0.00000  Uiso   1.00
H73    H     0.56081   0.67614   0.53584   0.00000  Uiso   1.00
H74    H     0.16881   0.60150   0.41142   0.00000  Uiso   1.00
H75    H     0.58632   0.38020   0.65822   0.00000  Uiso   1.00
H76    H     0.42312   0.78488   0.56529   0.00000  Uiso   1.00
H77    H     0.92803   0.64205   0.72021   0.00000  Uiso   1.00
H78    H     0.14394   0.64961   0.66206   0.00000  Uiso   1.00
H79    H     0.86771   0.54465   0.77910   0.00000  Uiso   1.00
H80    H     0.79032   0.73656   0.73503   0.00000  Uiso   1.00
H81    H     0.35509   0.65054   0.57309   0.00000  Uiso   1.00
H82    H     0.77259   0.42924   0.81990   0.00000  Uiso   1.00
H83    H     0.60941   0.83392   0.72695   0.00000  Uiso   1.00
O84    O     0.40007   0.62994   0.45060   0.00000  Uiso   1.00
O85    O     0.63583   0.33961   0.77440   0.00000  Uiso   1.00
O86    O     0.42174   0.87055   0.65246   0.00000  Uiso   1.00
N87    N     0.18302   0.61201   0.45745   0.00000  Uiso   1.00
N88    N     0.63843   0.40511   0.68819   0.00000  Uiso   1.00
N89    N     0.48584   0.78345   0.60131   0.00000  Uiso   1.00
N90    N     0.28325   0.63840   0.54444   0.00000  Uiso   1.00
N91    N     0.73867   0.43150   0.77518   0.00000  Uiso   1.00
N92    N     0.58608   0.80983   0.68830   0.00000  Uiso   1.00
C93    C     0.26031   0.90211   0.42536   0.00000  Uiso   1.00
C94    C     0.40130   0.89176   0.43640   0.00000  Uiso   1.00
C95    C     0.46401   0.89776   0.49414   0.00000  Uiso   1.00
C96    C     0.59318   0.88630   0.49435   0.00000  Uiso   1.00
C97    C     0.80237   0.87283   0.51993   0.00000  Uiso   1.00
C98    C     0.25123   0.94879   0.37281   0.00000  Uiso   1.00
C99    C     0.18774   0.00274   0.37708   0.00000  Uiso   1.00
C100   C     0.19056   0.03929   0.32375   0.00000  Uiso   1.00
C101   C     0.16668   0.11433   0.25060   0.00000  Uiso   1.00
C102   C     0.20919   0.84452   0.39676   0.00000  Uiso   1.00
C103   C     0.11033   0.81080   0.42116   0.00000  Uiso   1.00
C104   C     0.07774   0.75956   0.38799   0.00000  Uiso   1.00
C105   C     0.98859   0.67271   0.35202   0.00000  Uiso   1.00
C106   C     0.37818   0.87108   0.32305   0.00000  Uiso   1.00
C107   C     0.46532   0.87490   0.38083   0.00000  Uiso   1.00
C108   C     0.59442   0.86343   0.38095   0.00000  Uiso   1.00
C109   C     0.65732   0.86942   0.43868   0.00000  Uiso   1.00
C110   C     0.31525   0.93194   0.31724   0.00000  Uiso   1.00
C111   C     0.31815   0.96841   0.26389   0.00000  Uiso   1.00
C112   C     0.25470   0.02240   0.26808   0.00000  Uiso   1.00
C113   C     0.27321   0.82766   0.34119   0.00000  Uiso   1.00
C114   C     0.24076   0.77647   0.30797   0.00000  Uiso   1.00
C115   C     0.14188   0.74268   0.33232   0.00000  Uiso   1.00
H116   H     0.21046   0.91523   0.46862   0.00000  Uiso   1.00
H117   H     0.41443   0.91081   0.53713   0.00000  Uiso   1.00
H118   H     0.13819   0.01577   0.42008   0.00000  Uiso   1.00
H119   H     0.06081   0.82386   0.46416   0.00000  Uiso   1.00
H120   H     0.66881   0.89850   0.58858   0.00000  Uiso   1.00
H121   H     0.08632   0.11980   0.34178   0.00000  Uiso   1.00
H122   H     0.92312   0.71512   0.43471   0.00000  Uiso   1.00
H123   H     0.42803   0.85795   0.27979   0.00000  Uiso   1.00
H124   H     0.64394   0.85039   0.33794   0.00000  Uiso   1.00
H125   H     0.36771   0.95535   0.22090   0.00000  Uiso   1.00
H126   H     0.29032   0.76344   0.26497   0.00000  Uiso   1.00
H127   H     0.85509   0.84946   0.42691   0.00000  Uiso   1.00
H128   H     0.27259   0.07076   0.18010   0.00000  Uiso   1.00
H129   H     0.10941   0.66608   0.27305   0.00000  Uiso   1.00
O130   O     0.90007   0.87006   0.54940   0.00000  Uiso   1.00
O131   O     0.13583   0.16039   0.22560   0.00000  Uiso   1.00
O132   O     0.92174   0.62945   0.34754   0.00000  Uiso   1.00
N133   N     0.68302   0.88799   0.54255   0.00000  Uiso   1.00
N134   N     0.13843   0.09489   0.31181   0.00000  Uiso   1.00
N135   N     0.98584   0.71655   0.39869   0.00000  Uiso   1.00
N136   N     0.78325   0.86160   0.45556   0.00000  Uiso   1.00
N137   N     0.23867   0.06850   0.22482   0.00000  Uiso   1.00
N138   N     0.08608   0.69017   0.31170   0.00000  Uiso   1.00
C139   C     0.23969   0.59789   0.92536   0.00000  Uiso   1.00
C140   C     0.09870   0.60824   0.93640   0.00000  Uiso   1.00
C141   C     0.03599   0.60224   0.99414   0.00000  Uiso   1.00
C142   C     0.90682   0.61370   0.99435   0.00000  Uiso   1.00
C143   C     0.69763   0.62717   0.01993   0.00000  Uiso   1.00
C144   C     0.24877   0.55121   0.87281   0.00000  Uiso   1.00
C145   C     0.31226   0.49726   0.87708   0.00000  Uiso   1.00
C146   C     0.30944   0.46071   0.82375   0.00000  Uiso   1.00
C147   C     0.33332   0.38567   0.75060   0.00000  Uiso   1.00
C148   C     0.29081   0.65548   0.89676   0.00000  Uiso   1.00
C149   C     0.38967   0.68920   0.92116   0.00000  Uiso   1.00
C150   C     0.42226   0.74044   0.88799   0.00000  Uiso   1.00
C151   C     0.51141   0.82729   0.85202   0.00000  Uiso   1.00
C152   C     0.12182   0.62892   0.82305   0.00000  Uiso   1.00
C153   C     0.03468   0.62510   0.88083   0.00000  Uiso   1.00
C154   C     0.90558   0.63657   0.88095   0.00000  Uiso   1.00
C155   C     0.84268   0.63058   0.93868   0.00000  Uiso   1.00
C156   C     0.18475   0.56806   0.81724   0.00000  Uiso   1.00
C157   C     0.18185   0.53159   0.76389   0.00000  Uiso   1.00
C158   C     0.24530   0.47760   0.76808   0.00000  Uiso   1.00
C159   C     0.22679   0.67234   0.84119   0.00000  Uiso   1.00
C160   C     0.25924   0.72353   0.80797   0.00000  Uiso   1.00
C161   C     0.35812   0.75732   0.83232   0.00000  Uiso   1.00
H162   H     0.28954   0.58477   0.96862   0.00000  Uiso   1.00
H163   H     0.08557   0.58919   0.03713   0.00000  Uiso   1.00
H164   H     0.36181   0.48423   0.92008   0.00000  Uiso   1.00
H165   H     0.43919   0.67614   0.96416   0.00000  Uiso   1.00
H166   H     0.83119   0.60150   0.08858   0.00000  Uiso   1.00
H167   H     0.41368   0.38020   0.84178   0.00000  Uiso   1.00
H168   H     0.57688   0.78488   0.93471   0.00000  Uiso   1.00
H169   H     0.07197   0.64205   0.77979   0.00000  Uiso   1.00
H170   H     0.85606   0.64961   0.83794   0.00000  Uiso   1.00
H171   H     0.13229   0.54465   0.72090   0.00000  Uiso   1.00
H172   H     0.20968   0.73656   0.76497   0.00000  Uiso   1.00
H173   H     0.64491   0.65054   0.92691   0.00000  Uiso   1.00
H174   H     0.22741   0.42924   0.68010   0.00000  Uiso   1.00
H175   H     0.39059   0.83392   0.77305   0.00000  Uiso   1.00
O176   O     0.59993   0.62994   0.04940   0.00000  Uiso   1.00
O177   O     0.36417   0.33961   0.72560   0.00000  Uiso   1.00
O178   O     0.57826   0.87055   0.84754   0.00000  Uiso   1.00
N179   N     0.81698   0.61201   0.04255   0.00000  Uiso   1.00
N180   N     0.36157   0.40511   0.81181   0.00000  Uiso   1.00
N181   N     0.51416   0.78345   0.89869   0.00000  Uiso   1.00
N182   N     0.71675   0.63840   0.95556   0.00000  Uiso   1.00
N183   N     0.26133   0.43150   0.72482   0.00000  Uiso   1.00
N184   N     0.41392   0.80983   0.81170   0.00000  Uiso   1.00
C185   C     0.26031   0.09789   0.92536   0.00000  Uiso   1.00
C186   C     0.40130   0.10824   0.93640   0.00000  Uiso   1.00
C187   C     0.46401   0.10224   0.99414   0.00000  Uiso   1.00
C188   C     0.59318   0.11370   0.99435   0.00000  Uiso   1.00
C189   C     0.80237   0.12717   0.01993   0.00000  Uiso   1.00
C190   C     0.25123   0.05121   0.87281   0.00000  Uiso   1.00
C191   C     0.18774   0.99726   0.87708   0.00000  Uiso   1.00
C192   C     0.19056   0.96071   0.82375   0.00000  Uiso   1.00
C193   C     0.16668   0.88567   0.75060   0.00000  Uiso   1.00
C194   C     0.20919   0.15548   0.89676   0.00000  Uiso   1.00
C195   C     0.11033   0.18920   0.92116   0.00000  Uiso   1.00
C196   C     0.07774   0.24044   0.88799   0.00000  Uiso   1.00
C197   C     0.98859   0.32729   0.85202   0.00000  Uiso   1.00
C198   C     0.37818   0.12892   0.82305   0.00000  Uiso   1.00
C199   C     0.46532   0.12510   0.88083   0.00000  Uiso   1.00
C200   C     0.59442   0.13657   0.88095   0.00000  Uiso   1.00
C201   C     0.65732   0.13058   0.93868   0.00000  Uiso   1.00
C202   C     0.31525   0.06806   0.81724   0.00000  Uiso   1.00
C203   C     0.31815   0.03159   0.76389   0.00000  Uiso   1.00
C204   C     0.25470   0.97760   0.76808   0.00000  Uiso   1.00
C205   C     0.27321   0.17234   0.84119   0.00000  Uiso   1.00
C206   C     0.24076   0.22353   0.80797   0.00000  Uiso   1.00
C207   C     0.14188   0.25732   0.83232   0.00000  Uiso   1.00
H208   H     0.21046   0.08477   0.96862   0.00000  Uiso   1.00
H209   H     0.41443   0.08919   0.03713   0.00000  Uiso   1.00
H210   H     0.13819   0.98423   0.92008   0.00000  Uiso   1.00
H211   H     0.06081   0.17614   0.96416   0.00000  Uiso   1.00
H212   H     0.66881   0.10150   0.08858   0.00000  Uiso   1.00
H213   H     0.08632   0.88020   0.84178   0.00000  Uiso   1.00
H214   H     0.92312   0.28488   0.93471   0.00000  Uiso   1.00
H215   H     0.42803   0.14205   0.77979   0.00000  Uiso   1.00
H216   H     0.64394   0.14961   0.83794   0.00000  Uiso   1.00
H217   H     0.36771   0.04465   0.72090   0.00000  Uiso   1.00
H218   H     0.29032   0.23656   0.76497   0.00000  Uiso   1.00
H219   H     0.85509   0.15054   0.92691   0.00000  Uiso   1.00
H220   H     0.27259   0.92924   0.68010   0.00000  Uiso   1.00
H221   H     0.10941   0.33392   0.77305   0.00000  Uiso   1.00
O222   O     0.90007   0.12994   0.04940   0.00000  Uiso   1.00
O223   O     0.13583   0.83961   0.72560   0.00000  Uiso   1.00
O224   O     0.92174   0.37055   0.84754   0.00000  Uiso   1.00
N225   N     0.68302   0.11201   0.04255   0.00000  Uiso   1.00
N226   N     0.13843   0.90511   0.81181   0.00000  Uiso   1.00
N227   N     0.98584   0.28345   0.89869   0.00000  Uiso   1.00
N228   N     0.78325   0.13840   0.95556   0.00000  Uiso   1.00
N229   N     0.23867   0.93150   0.72482   0.00000  Uiso   1.00
N230   N     0.08608   0.30983   0.81170   0.00000  Uiso   1.00
C231   C     0.23969   0.40211   0.42536   0.00000  Uiso   1.00
C232   C     0.09870   0.39176   0.43640   0.00000  Uiso   1.00
C233   C     0.03599   0.39776   0.49414   0.00000  Uiso   1.00
C234   C     0.90682   0.38630   0.49435   0.00000  Uiso   1.00
C235   C     0.69763   0.37283   0.51993   0.00000  Uiso   1.00
C236   C     0.24877   0.44879   0.37281   0.00000  Uiso   1.00
C237   C     0.31226   0.50274   0.37708   0.00000  Uiso   1.00
C238   C     0.30944   0.53929   0.32375   0.00000  Uiso   1.00
C239   C     0.33332   0.61433   0.25060   0.00000  Uiso   1.00
C240   C     0.29081   0.34452   0.39676   0.00000  Uiso   1.00
C241   C     0.38967   0.31080   0.42116   0.00000  Uiso   1.00
C242   C     0.42226   0.25956   0.38799   0.00000  Uiso   1.00
C243   C     0.51141   0.17271   0.35202   0.00000  Uiso   1.00
C244   C     0.12182   0.37108   0.32305   0.00000  Uiso   1.00
C245   C     0.03468   0.37490   0.38083   0.00000  Uiso   1.00
C246   C     0.90558   0.36343   0.38095   0.00000  Uiso   1.00
C247   C     0.84268   0.36942   0.43868   0.00000  Uiso   1.00
C248   C     0.18475   0.43194   0.31724   0.00000  Uiso   1.00
C249   C     0.18185   0.46841   0.26389   0.00000  Uiso   1.00
C250   C     0.24530   0.52240   0.26808   0.00000  Uiso   1.00
C251   C     0.22679   0.32766   0.34119   0.00000  Uiso   1.00
C252   C     0.25924   0.27647   0.30797   0.00000  Uiso   1.00
C253   C     0.35812   0.24268   0.33232   0.00000  Uiso   1.00
H254   H     0.28954   0.41523   0.46862   0.00000  Uiso   1.00
H255   H     0.08557   0.41081   0.53713   0.00000  Uiso   1.00
H256   H     0.36181   0.51577   0.42008   0.00000  Uiso   1.00
H257   H     0.43919   0.32386   0.46416   0.00000  Uiso   1.00
H258   H     0.83119   0.39850   0.58858   0.00000  Uiso   1.00
H259   H     0.41368   0.61980   0.34178   0.00000  Uiso   1.00
H260   H     0.57688   0.21512   0.43471   0.00000  Uiso   1.00
H261   H     0.07197   0.35795   0.27979   0.00000  Uiso   1.00
H262   H     0.85606   0.35039   0.33794   0.00000  Uiso   1.00
H263   H     0.13229   0.45535   0.22090   0.00000  Uiso   1.00
H264   H     0.20968   0.26344   0.26497   0.00000  Uiso   1.00
H265   H     0.64491   0.34946   0.42691   0.00000  Uiso   1.00
H266   H     0.22741   0.57076   0.18010   0.00000  Uiso   1.00
H267   H     0.39059   0.16608   0.27305   0.00000  Uiso   1.00
O268   O     0.59993   0.37006   0.54940   0.00000  Uiso   1.00
O269   O     0.36417   0.66039   0.22560   0.00000  Uiso   1.00
O270   O     0.57826   0.12945   0.34754   0.00000  Uiso   1.00
N271   N     0.81698   0.38799   0.54255   0.00000  Uiso   1.00
N272   N     0.36157   0.59489   0.31181   0.00000  Uiso   1.00
N273   N     0.51416   0.21655   0.39869   0.00000  Uiso   1.00
N274   N     0.71675   0.36160   0.45556   0.00000  Uiso   1.00
N275   N     0.26133   0.56850   0.22482   0.00000  Uiso   1.00
N276   N     0.41392   0.19017   0.31170   0.00000  Uiso   1.00
C277   C     0.73969   0.09789   0.57464   0.00000  Uiso   1.00
C278   C     0.59870   0.10824   0.56360   0.00000  Uiso   1.00
C279   C     0.53599   0.10224   0.50586   0.00000  Uiso   1.00
C280   C     0.40682   0.11370   0.50565   0.00000  Uiso   1.00
C281   C     0.19763   0.12717   0.48007   0.00000  Uiso   1.00
C282   C     0.74877   0.05121   0.62719   0.00000  Uiso   1.00
C283   C     0.81226   0.99726   0.62292   0.00000  Uiso   1.00
C284   C     0.80944   0.96071   0.67625   0.00000  Uiso   1.00
C285   C     0.83332   0.88567   0.74940   0.00000  Uiso   1.00
C286   C     0.79081   0.15548   0.60324   0.00000  Uiso   1.00
C287   C     0.88967   0.18920   0.57884   0.00000  Uiso   1.00
C288   C     0.92226   0.24044   0.61201   0.00000  Uiso   1.00
C289   C     0.01141   0.32729   0.64798   0.00000  Uiso   1.00
C290   C     0.62182   0.12892   0.67695   0.00000  Uiso   1.00
C291   C     0.53468   0.12510   0.61917   0.00000  Uiso   1.00
C292   C     0.40558   0.13657   0.61905   0.00000  Uiso   1.00
C293   C     0.34268   0.13058   0.56132   0.00000  Uiso   1.00
C294   C     0.68475   0.06806   0.68276   0.00000  Uiso   1.00
C295   C     0.68185   0.03159   0.73611   0.00000  Uiso   1.00
C296   C     0.74530   0.97760   0.73192   0.00000  Uiso   1.00
C297   C     0.72679   0.17234   0.65881   0.00000  Uiso   1.00
C298   C     0.75924   0.22353   0.69203   0.00000  Uiso   1.00
C299   C     0.85812   0.25732   0.66768   0.00000  Uiso   1.00
H300   H     0.78954   0.08477   0.53138   0.00000  Uiso   1.00
H301   H     0.58557   0.08919   0.46287   0.00000  Uiso   1.00
H302   H     0.86181   0.98423   0.57992   0.00000  Uiso   1.00
H303   H     0.93919   0.17614   0.53584   0.00000  Uiso   1.00
H304   H     0.33119   0.10150   0.41142   0.00000  Uiso   1.00
H305   H     0.91368   0.88020   0.65822   0.00000  Uiso   1.00
H306   H     0.07688   0.28488   0.56529   0.00000  Uiso   1.00
H307   H     0.57197   0.14205   0.72021   0.00000  Uiso   1.00
H308   H     0.35606   0.14961   0.66206   0.00000  Uiso   1.00
H309   H     0.63229   0.04465   0.77910   0.00000  Uiso   1.00
H310   H     0.70968   0.23656   0.73503   0.00000  Uiso   1.00
H311   H     0.14491   0.15054   0.57309   0.00000  Uiso   1.00
H312   H     0.72741   0.92924   0.81990   0.00000  Uiso   1.00
H313   H     0.89059   0.33392   0.72695   0.00000  Uiso   1.00
O314   O     0.09993   0.12994   0.45060   0.00000  Uiso   1.00
O315   O     0.86417   0.83961   0.77440   0.00000  Uiso   1.00
O316   O     0.07826   0.37055   0.65246   0.00000  Uiso   1.00
N317   N     0.31698   0.11201   0.45745   0.00000  Uiso   1.00
N318   N     0.86157   0.90511   0.68819   0.00000  Uiso   1.00
N319   N     0.01416   0.28345   0.60131   0.00000  Uiso   1.00
N320   N     0.21675   0.13840   0.54444   0.00000  Uiso   1.00
N321   N     0.76133   0.93150   0.77518   0.00000  Uiso   1.00
N322   N     0.91392   0.30983   0.68830   0.00000  Uiso   1.00
C323   C     0.76031   0.40211   0.07464   0.00000  Uiso   1.00
C324   C     0.90130   0.39176   0.06360   0.00000  Uiso   1.00
C325   C     0.96401   0.39776   0.00586   0.00000  Uiso   1.00
C326   C     0.09318   0.38630   0.00565   0.00000  Uiso   1.00
C327   C     0.30237   0.37283   0.98007   0.00000  Uiso   1.00
C328   C     0.75123   0.44879   0.12719   0.00000  Uiso   1.00
C329   C     0.68774   0.50274   0.12292   0.00000  Uiso   1.00
C330   C     0.69056   0.53929   0.17625   0.00000  Uiso   1.00
C331   C     0.66668   0.61433   0.24940   0.00000  Uiso   1.00
C332   C     0.70919   0.34452   0.10324   0.00000  Uiso   1.00
C333   C     0.61033   0.31080   0.07884   0.00000  Uiso   1.00
C334   C     0.57774   0.25956   0.11201   0.00000  Uiso   1.00
C335   C     0.48859   0.17271   0.14798   0.00000  Uiso   1.00
C336   C     0.87818   0.37108   0.17695   0.00000  Uiso   1.00
C337   C     0.96532   0.37490   0.11917   0.00000  Uiso   1.00
C338   C     0.09442   0.36343   0.11905   0.00000  Uiso   1.00
C339   C     0.15732   0.36942   0.06132   0.00000  Uiso   1.00
C340   C     0.81525   0.43194   0.18276   0.00000  Uiso   1.00
C341   C     0.81815   0.46841   0.23611   0.00000  Uiso   1.00
C342   C     0.75470   0.52240   0.23192   0.00000  Uiso   1.00
C343   C     0.77321   0.32766   0.15881   0.00000  Uiso   1.00
C344   C     0.74076   0.27647   0.19203   0.00000  Uiso   1.00
C345   C     0.64188   0.24268   0.16768   0.00000  Uiso   1.00
H346   H     0.71046   0.41523   0.03138   0.00000  Uiso   1.00
H347   H     0.91443   0.41081   0.96287   0.00000  Uiso   1.00
H348   H     0.63819   0.51577   0.07992   0.00000  Uiso   1.00
H349   H     0.56081   0.32386   0.03584   0.00000  Uiso   1.00
H350   H     0.16881   0.39850   0.91142   0.00000  Uiso   1.00
H351   H     0.58632   0.61980   0.15822   0.00000  Uiso   1.00
H352   H     0.42312   0.21512   0.06529   0.00000  Uiso   1.00
H353   H     0.92803   0.35795   0.22021   0.00000  Uiso   1.00
H354   H     0.14394   0.35039   0.16206   0.00000  Uiso   1.00
H355   H     0.86771   0.45535   0.27910   0.00000  Uiso   1.00
H356   H     0.79032   0.26344   0.23503   0.00000  Uiso   1.00
H357   H     0.35509   0.34946   0.07309   0.00000  Uiso   1.00
H358   H     0.77259   0.57076   0.31990   0.00000  Uiso   1.00
H359   H     0.60941   0.16608   0.22695   0.00000  Uiso   1.00
O360   O     0.40007   0.37006   0.95060   0.00000  Uiso   1.00
O361   O     0.63583   0.66039   0.27440   0.00000  Uiso   1.00
O362   O     0.42174   0.12945   0.15246   0.00000  Uiso   1.00
N363   N     0.18302   0.38799   0.95745   0.00000  Uiso   1.00
N364   N     0.63843   0.59489   0.18819   0.00000  Uiso   1.00
N365   N     0.48584   0.21655   0.10131   0.00000  Uiso   1.00
N366   N     0.28325   0.36160   0.04444   0.00000  Uiso   1.00
N367   N     0.73867   0.56850   0.27518   0.00000  Uiso   1.00
N368   N     0.58608   0.19017   0.18830   0.00000  Uiso   1.00
