data_job_04451
_audit_creation_date              2018-12-19
_audit_creation_method            'Materials Studio'
_symmetry_space_group_name_H-M    'P1'
_symmetry_Int_Tables_number       1
_symmetry_cell_setting            triclinic
loop_
_symmetry_equiv_pos_as_xyz
  x,y,z
_cell_length_a                    31.6435
_cell_length_b                    12.8270
_cell_length_c                    11.8142
_cell_angle_alpha                 90.0000
_cell_angle_beta                  78.5017
_cell_angle_gamma                 90.0000
loop_
_atom_site_label
_atom_site_type_symbol
_atom_site_fract_x
_atom_site_fract_y
_atom_site_fract_z
_atom_site_U_iso_or_equiv
_atom_site_adp_type
_atom_site_occupancy
C1     C     0.90824   0.28327   0.03659   0.00000  Uiso   1.00
C2     C     0.91716   0.38593   0.97109   0.00000  Uiso   1.00
C3     C     0.95619   0.41523   0.90234   0.00000  Uiso   1.00
C4     C     0.95779   0.51235   0.84978   0.00000  Uiso   1.00
C5     C     0.97716   0.66183   0.74573   0.00000  Uiso   1.00
C6     C     0.89186   0.31253   0.16282   0.00000  Uiso   1.00
C7     C     0.90961   0.28010   0.25528   0.00000  Uiso   1.00
C8     C     0.88991   0.31543   0.36412   0.00000  Uiso   1.00
C9     C     0.86997   0.35090   0.55775   0.00000  Uiso   1.00
C10    C     0.87009   0.23385   0.99567   0.00000  Uiso   1.00
C11    C     0.86953   0.13525   0.94762   0.00000  Uiso   1.00
C12    C     0.83150   0.10433   0.91575   0.00000  Uiso   1.00
C13    C     0.77776   0.01763   0.84986   0.00000  Uiso   1.00
C14    C     0.84170   0.40365   0.06549   0.00000  Uiso   1.00
C15    C     0.88102   0.45131   0.98679   0.00000  Uiso   1.00
C16    C     0.88257   0.54841   0.93431   0.00000  Uiso   1.00
C17    C     0.92159   0.57785   0.86550   0.00000  Uiso   1.00
C18    C     0.85572   0.37791   0.17852   0.00000  Uiso   1.00
C19    C     0.83599   0.41329   0.28725   0.00000  Uiso   1.00
C20    C     0.85371   0.38093   0.37985   0.00000  Uiso   1.00
C21    C     0.83395   0.29923   0.01137   0.00000  Uiso   1.00
C22    C     0.79591   0.26845   0.97958   0.00000  Uiso   1.00
C23    C     0.79529   0.16983   0.93148   0.00000  Uiso   1.00
H24    H     0.93638   0.23237   0.02438   0.00000  Uiso   1.00
H25    H     0.98415   0.36461   0.89023   0.00000  Uiso   1.00
H26    H     0.93758   0.22950   0.24311   0.00000  Uiso   1.00
H27    H     0.89751   0.08468   0.93549   0.00000  Uiso   1.00
H28    H     0.02118   0.54008   0.74845   0.00000  Uiso   1.00
H29    H     0.92297   0.25516   0.49253   0.00000  Uiso   1.00
H30    H     0.83847   0.94977   0.84385   0.00000  Uiso   1.00
H31    H     0.81356   0.45455   0.07771   0.00000  Uiso   1.00
H32    H     0.85459   0.59900   0.94648   0.00000  Uiso   1.00
H33    H     0.80802   0.46388   0.29936   0.00000  Uiso   1.00
H34    H     0.76795   0.31906   0.99174   0.00000  Uiso   1.00
H35    H     0.91603   0.73032   0.79411   0.00000  Uiso   1.00
H36    H     0.81782   0.44539   0.53819   0.00000  Uiso   1.00
H37    H     0.73332   0.14001   0.88951   0.00000  Uiso   1.00
O38    O     0.99782   0.72622   0.68402   0.00000  Uiso   1.00
O39    O     0.86897   0.35240   0.66022   0.00000  Uiso   1.00
O40    O     0.75811   0.95175   0.80916   0.00000  Uiso   1.00
N41    N     0.99080   0.56502   0.77719   0.00000  Uiso   1.00
N42    N     0.89898   0.29865   0.47285   0.00000  Uiso   1.00
N43    N     0.81998   0.01313   0.86642   0.00000  Uiso   1.00
N44    N     0.93422   0.66739   0.80176   0.00000  Uiso   1.00
N45    N     0.84240   0.40102   0.49742   0.00000  Uiso   1.00
N46    N     0.76340   0.11550   0.89099   0.00000  Uiso   1.00
C47    C     0.60207   0.27649   0.50999   0.00000  Uiso   1.00
C48    C     0.59373   0.38124   0.45745   0.00000  Uiso   1.00
C49    C     0.55538   0.41171   0.42724   0.00000  Uiso   1.00
C50    C     0.55423   0.51070   0.38041   0.00000  Uiso   1.00
C51    C     0.53580   0.66331   0.30132   0.00000  Uiso   1.00
C52    C     0.61653   0.30150   0.62262   0.00000  Uiso   1.00
C53    C     0.59734   0.26492   0.73128   0.00000  Uiso   1.00
C54    C     0.61539   0.29678   0.82349   0.00000  Uiso   1.00
C55    C     0.63237   0.32553   0.00081   0.00000  Uiso   1.00
C56    C     0.64130   0.23008   0.42972   0.00000  Uiso   1.00
C57    C     0.64295   0.13344   0.37621   0.00000  Uiso   1.00
C58    C     0.68186   0.10515   0.30604   0.00000  Uiso   1.00
C59    C     0.73731   0.02302   0.18386   0.00000  Uiso   1.00
C60    C     0.66824   0.39811   0.48053   0.00000  Uiso   1.00
C61    C     0.62967   0.44729   0.44145   0.00000  Uiso   1.00
C62    C     0.62858   0.54626   0.39465   0.00000  Uiso   1.00
C63    C     0.59023   0.57687   0.36438   0.00000  Uiso   1.00
C64    C     0.65247   0.36756   0.60662   0.00000  Uiso   1.00
C65    C     0.67055   0.39947   0.69869   0.00000  Uiso   1.00
C66    C     0.65139   0.36295   0.80746   0.00000  Uiso   1.00
C67    C     0.67724   0.29614   0.41372   0.00000  Uiso   1.00
C68    C     0.71616   0.26799   0.34362   0.00000  Uiso   1.00
C69    C     0.71786   0.17132   0.29001   0.00000  Uiso   1.00
H70    H     0.57410   0.22507   0.52245   0.00000  Uiso   1.00
H71    H     0.52757   0.36057   0.43965   0.00000  Uiso   1.00
H72    H     0.56953   0.21380   0.74363   0.00000  Uiso   1.00
H73    H     0.61513   0.08234   0.38862   0.00000  Uiso   1.00
H74    H     0.49183   0.53995   0.34083   0.00000  Uiso   1.00
H75    H     0.58032   0.23043   0.98179   0.00000  Uiso   1.00
H76    H     0.67648   0.95323   0.23317   0.00000  Uiso   1.00
H77    H     0.69622   0.44953   0.46808   0.00000  Uiso   1.00
H78    H     0.65640   0.59736   0.38228   0.00000  Uiso   1.00
H79    H     0.69836   0.45058   0.68627   0.00000  Uiso   1.00
H80    H     0.74396   0.31913   0.33126   0.00000  Uiso   1.00
H81    H     0.59639   0.73213   0.29428   0.00000  Uiso   1.00
H82    H     0.68488   0.42261   0.93524   0.00000  Uiso   1.00
H83    H     0.78104   0.14542   0.18662   0.00000  Uiso   1.00
O84    O     0.51571   0.72925   0.26213   0.00000  Uiso   1.00
O85    O     0.63181   0.32316   0.10305   0.00000  Uiso   1.00
O86    O     0.75796   0.95948   0.12087   0.00000  Uiso   1.00
N87    N     0.52191   0.56488   0.34162   0.00000  Uiso   1.00
N88    N     0.60464   0.27552   0.94089   0.00000  Uiso   1.00
N89    N     0.69454   0.01635   0.24102   0.00000  Uiso   1.00
N90    N     0.57817   0.66830   0.31657   0.00000  Uiso   1.00
N91    N     0.66090   0.37893   0.91584   0.00000  Uiso   1.00
N92    N     0.75080   0.11976   0.21597   0.00000  Uiso   1.00
C93    C     0.40824   0.78327   0.03659   0.00000  Uiso   1.00
C94    C     0.41716   0.88593   0.97109   0.00000  Uiso   1.00
C95    C     0.45619   0.91523   0.90234   0.00000  Uiso   1.00
C96    C     0.45779   0.01235   0.84978   0.00000  Uiso   1.00
C97    C     0.47716   0.16183   0.74573   0.00000  Uiso   1.00
C98    C     0.39186   0.81253   0.16282   0.00000  Uiso   1.00
C99    C     0.40961   0.78010   0.25528   0.00000  Uiso   1.00
C100   C     0.38991   0.81543   0.36412   0.00000  Uiso   1.00
C101   C     0.36997   0.85090   0.55775   0.00000  Uiso   1.00
C102   C     0.37009   0.73385   0.99567   0.00000  Uiso   1.00
C103   C     0.36953   0.63525   0.94762   0.00000  Uiso   1.00
C104   C     0.33150   0.60433   0.91575   0.00000  Uiso   1.00
C105   C     0.27776   0.51763   0.84986   0.00000  Uiso   1.00
C106   C     0.34170   0.90365   0.06549   0.00000  Uiso   1.00
C107   C     0.38102   0.95131   0.98679   0.00000  Uiso   1.00
C108   C     0.38257   0.04841   0.93431   0.00000  Uiso   1.00
C109   C     0.42159   0.07785   0.86550   0.00000  Uiso   1.00
C110   C     0.35572   0.87791   0.17852   0.00000  Uiso   1.00
C111   C     0.33599   0.91329   0.28725   0.00000  Uiso   1.00
C112   C     0.35371   0.88093   0.37985   0.00000  Uiso   1.00
C113   C     0.33395   0.79923   0.01137   0.00000  Uiso   1.00
C114   C     0.29591   0.76845   0.97958   0.00000  Uiso   1.00
C115   C     0.29529   0.66983   0.93148   0.00000  Uiso   1.00
H116   H     0.43638   0.73237   0.02438   0.00000  Uiso   1.00
H117   H     0.48415   0.86461   0.89023   0.00000  Uiso   1.00
H118   H     0.43758   0.72950   0.24311   0.00000  Uiso   1.00
H119   H     0.39751   0.58468   0.93549   0.00000  Uiso   1.00
H120   H     0.52118   0.04008   0.74845   0.00000  Uiso   1.00
H121   H     0.42297   0.75516   0.49253   0.00000  Uiso   1.00
H122   H     0.33847   0.44977   0.84385   0.00000  Uiso   1.00
H123   H     0.31356   0.95455   0.07771   0.00000  Uiso   1.00
H124   H     0.35459   0.09900   0.94648   0.00000  Uiso   1.00
H125   H     0.30802   0.96388   0.29936   0.00000  Uiso   1.00
H126   H     0.26795   0.81906   0.99174   0.00000  Uiso   1.00
H127   H     0.41603   0.23032   0.79411   0.00000  Uiso   1.00
H128   H     0.31782   0.94539   0.53819   0.00000  Uiso   1.00
H129   H     0.23332   0.64001   0.88951   0.00000  Uiso   1.00
O130   O     0.49782   0.22622   0.68402   0.00000  Uiso   1.00
O131   O     0.36897   0.85240   0.66022   0.00000  Uiso   1.00
O132   O     0.25811   0.45175   0.80916   0.00000  Uiso   1.00
N133   N     0.49080   0.06502   0.77719   0.00000  Uiso   1.00
N134   N     0.39898   0.79865   0.47285   0.00000  Uiso   1.00
N135   N     0.31998   0.51313   0.86642   0.00000  Uiso   1.00
N136   N     0.43422   0.16739   0.80176   0.00000  Uiso   1.00
N137   N     0.34240   0.90102   0.49742   0.00000  Uiso   1.00
N138   N     0.26340   0.61550   0.89099   0.00000  Uiso   1.00
C139   C     0.10207   0.77649   0.50999   0.00000  Uiso   1.00
C140   C     0.09373   0.88124   0.45745   0.00000  Uiso   1.00
C141   C     0.05538   0.91171   0.42724   0.00000  Uiso   1.00
C142   C     0.05423   0.01070   0.38041   0.00000  Uiso   1.00
C143   C     0.03580   0.16331   0.30132   0.00000  Uiso   1.00
C144   C     0.11653   0.80150   0.62262   0.00000  Uiso   1.00
C145   C     0.09734   0.76492   0.73128   0.00000  Uiso   1.00
C146   C     0.11539   0.79678   0.82349   0.00000  Uiso   1.00
C147   C     0.13237   0.82553   0.00081   0.00000  Uiso   1.00
C148   C     0.14130   0.73008   0.42972   0.00000  Uiso   1.00
C149   C     0.14295   0.63344   0.37621   0.00000  Uiso   1.00
C150   C     0.18186   0.60515   0.30604   0.00000  Uiso   1.00
C151   C     0.23731   0.52302   0.18386   0.00000  Uiso   1.00
C152   C     0.16824   0.89811   0.48053   0.00000  Uiso   1.00
C153   C     0.12967   0.94729   0.44145   0.00000  Uiso   1.00
C154   C     0.12858   0.04626   0.39465   0.00000  Uiso   1.00
C155   C     0.09023   0.07687   0.36438   0.00000  Uiso   1.00
C156   C     0.15247   0.86756   0.60662   0.00000  Uiso   1.00
C157   C     0.17055   0.89947   0.69869   0.00000  Uiso   1.00
C158   C     0.15139   0.86295   0.80746   0.00000  Uiso   1.00
C159   C     0.17724   0.79614   0.41372   0.00000  Uiso   1.00
C160   C     0.21616   0.76799   0.34362   0.00000  Uiso   1.00
C161   C     0.21786   0.67132   0.29001   0.00000  Uiso   1.00
H162   H     0.07410   0.72507   0.52245   0.00000  Uiso   1.00
H163   H     0.02757   0.86057   0.43965   0.00000  Uiso   1.00
H164   H     0.06953   0.71380   0.74363   0.00000  Uiso   1.00
H165   H     0.11513   0.58234   0.38862   0.00000  Uiso   1.00
H166   H     0.99183   0.03995   0.34083   0.00000  Uiso   1.00
H167   H     0.08032   0.73043   0.98179   0.00000  Uiso   1.00
H168   H     0.17648   0.45323   0.23317   0.00000  Uiso   1.00
H169   H     0.19622   0.94953   0.46808   0.00000  Uiso   1.00
H170   H     0.15640   0.09736   0.38228   0.00000  Uiso   1.00
H171   H     0.19836   0.95058   0.68627   0.00000  Uiso   1.00
H172   H     0.24396   0.81913   0.33126   0.00000  Uiso   1.00
H173   H     0.09639   0.23213   0.29428   0.00000  Uiso   1.00
H174   H     0.18488   0.92261   0.93524   0.00000  Uiso   1.00
H175   H     0.28104   0.64542   0.18662   0.00000  Uiso   1.00
O176   O     0.01571   0.22925   0.26213   0.00000  Uiso   1.00
O177   O     0.13181   0.82316   0.10305   0.00000  Uiso   1.00
O178   O     0.25796   0.45948   0.12087   0.00000  Uiso   1.00
N179   N     0.02191   0.06488   0.34162   0.00000  Uiso   1.00
N180   N     0.10464   0.77552   0.94089   0.00000  Uiso   1.00
N181   N     0.19454   0.51635   0.24102   0.00000  Uiso   1.00
N182   N     0.07817   0.16830   0.31657   0.00000  Uiso   1.00
N183   N     0.16090   0.87893   0.91584   0.00000  Uiso   1.00
N184   N     0.25080   0.61976   0.21597   0.00000  Uiso   1.00
C185   C     0.09176   0.28327   0.96341   0.00000  Uiso   1.00
C186   C     0.08284   0.38593   0.02891   0.00000  Uiso   1.00
C187   C     0.04381   0.41523   0.09766   0.00000  Uiso   1.00
C188   C     0.04221   0.51235   0.15022   0.00000  Uiso   1.00
C189   C     0.02284   0.66183   0.25427   0.00000  Uiso   1.00
C190   C     0.10814   0.31253   0.83718   0.00000  Uiso   1.00
C191   C     0.09039   0.28010   0.74472   0.00000  Uiso   1.00
C192   C     0.11009   0.31543   0.63588   0.00000  Uiso   1.00
C193   C     0.13003   0.35090   0.44225   0.00000  Uiso   1.00
C194   C     0.12991   0.23385   0.00433   0.00000  Uiso   1.00
C195   C     0.13047   0.13525   0.05238   0.00000  Uiso   1.00
C196   C     0.16850   0.10433   0.08425   0.00000  Uiso   1.00
C197   C     0.22224   0.01763   0.15014   0.00000  Uiso   1.00
C198   C     0.15830   0.40365   0.93451   0.00000  Uiso   1.00
C199   C     0.11898   0.45131   0.01321   0.00000  Uiso   1.00
C200   C     0.11743   0.54841   0.06569   0.00000  Uiso   1.00
C201   C     0.07841   0.57785   0.13450   0.00000  Uiso   1.00
C202   C     0.14428   0.37791   0.82148   0.00000  Uiso   1.00
C203   C     0.16401   0.41329   0.71275   0.00000  Uiso   1.00
C204   C     0.14629   0.38093   0.62015   0.00000  Uiso   1.00
C205   C     0.16605   0.29923   0.98863   0.00000  Uiso   1.00
C206   C     0.20409   0.26845   0.02042   0.00000  Uiso   1.00
C207   C     0.20471   0.16983   0.06852   0.00000  Uiso   1.00
H208   H     0.06362   0.23237   0.97562   0.00000  Uiso   1.00
H209   H     0.01585   0.36461   0.10977   0.00000  Uiso   1.00
H210   H     0.06242   0.22950   0.75689   0.00000  Uiso   1.00
H211   H     0.10249   0.08468   0.06451   0.00000  Uiso   1.00
H212   H     0.97882   0.54008   0.25155   0.00000  Uiso   1.00
H213   H     0.07703   0.25516   0.50747   0.00000  Uiso   1.00
H214   H     0.16153   0.94977   0.15615   0.00000  Uiso   1.00
H215   H     0.18644   0.45455   0.92229   0.00000  Uiso   1.00
H216   H     0.14541   0.59900   0.05352   0.00000  Uiso   1.00
H217   H     0.19198   0.46388   0.70064   0.00000  Uiso   1.00
H218   H     0.23205   0.31906   0.00826   0.00000  Uiso   1.00
H219   H     0.08397   0.73032   0.20589   0.00000  Uiso   1.00
H220   H     0.18218   0.44539   0.46181   0.00000  Uiso   1.00
H221   H     0.26668   0.14001   0.11049   0.00000  Uiso   1.00
O222   O     0.00218   0.72622   0.31598   0.00000  Uiso   1.00
O223   O     0.13103   0.35240   0.33978   0.00000  Uiso   1.00
O224   O     0.24189   0.95175   0.19084   0.00000  Uiso   1.00
N225   N     0.00920   0.56502   0.22281   0.00000  Uiso   1.00
N226   N     0.10102   0.29865   0.52715   0.00000  Uiso   1.00
N227   N     0.18002   0.01313   0.13358   0.00000  Uiso   1.00
N228   N     0.06578   0.66739   0.19824   0.00000  Uiso   1.00
N229   N     0.15760   0.40102   0.50258   0.00000  Uiso   1.00
N230   N     0.23660   0.11550   0.10901   0.00000  Uiso   1.00
C231   C     0.39793   0.27649   0.49001   0.00000  Uiso   1.00
C232   C     0.40627   0.38124   0.54255   0.00000  Uiso   1.00
C233   C     0.44462   0.41171   0.57276   0.00000  Uiso   1.00
C234   C     0.44577   0.51070   0.61959   0.00000  Uiso   1.00
C235   C     0.46420   0.66331   0.69868   0.00000  Uiso   1.00
C236   C     0.38347   0.30150   0.37738   0.00000  Uiso   1.00
C237   C     0.40266   0.26492   0.26872   0.00000  Uiso   1.00
C238   C     0.38461   0.29678   0.17651   0.00000  Uiso   1.00
C239   C     0.36763   0.32553   0.99919   0.00000  Uiso   1.00
C240   C     0.35870   0.23008   0.57028   0.00000  Uiso   1.00
C241   C     0.35705   0.13344   0.62379   0.00000  Uiso   1.00
C242   C     0.31814   0.10515   0.69396   0.00000  Uiso   1.00
C243   C     0.26269   0.02302   0.81614   0.00000  Uiso   1.00
C244   C     0.33176   0.39811   0.51947   0.00000  Uiso   1.00
C245   C     0.37033   0.44729   0.55855   0.00000  Uiso   1.00
C246   C     0.37142   0.54626   0.60535   0.00000  Uiso   1.00
C247   C     0.40977   0.57687   0.63562   0.00000  Uiso   1.00
C248   C     0.34753   0.36756   0.39338   0.00000  Uiso   1.00
C249   C     0.32945   0.39947   0.30131   0.00000  Uiso   1.00
C250   C     0.34861   0.36295   0.19254   0.00000  Uiso   1.00
C251   C     0.32276   0.29614   0.58628   0.00000  Uiso   1.00
C252   C     0.28384   0.26799   0.65638   0.00000  Uiso   1.00
C253   C     0.28214   0.17132   0.70999   0.00000  Uiso   1.00
H254   H     0.42590   0.22507   0.47755   0.00000  Uiso   1.00
H255   H     0.47243   0.36057   0.56035   0.00000  Uiso   1.00
H256   H     0.43047   0.21380   0.25637   0.00000  Uiso   1.00
H257   H     0.38487   0.08234   0.61138   0.00000  Uiso   1.00
H258   H     0.50817   0.53995   0.65917   0.00000  Uiso   1.00
H259   H     0.41968   0.23043   0.01821   0.00000  Uiso   1.00
H260   H     0.32352   0.95323   0.76683   0.00000  Uiso   1.00
H261   H     0.30378   0.44953   0.53192   0.00000  Uiso   1.00
H262   H     0.34360   0.59736   0.61772   0.00000  Uiso   1.00
H263   H     0.30164   0.45058   0.31373   0.00000  Uiso   1.00
H264   H     0.25604   0.31913   0.66874   0.00000  Uiso   1.00
H265   H     0.40361   0.73213   0.70572   0.00000  Uiso   1.00
H266   H     0.31512   0.42261   0.06476   0.00000  Uiso   1.00
H267   H     0.21896   0.14542   0.81338   0.00000  Uiso   1.00
O268   O     0.48429   0.72925   0.73787   0.00000  Uiso   1.00
O269   O     0.36819   0.32316   0.89695   0.00000  Uiso   1.00
O270   O     0.24204   0.95948   0.87913   0.00000  Uiso   1.00
N271   N     0.47809   0.56488   0.65838   0.00000  Uiso   1.00
N272   N     0.39536   0.27552   0.05911   0.00000  Uiso   1.00
N273   N     0.30546   0.01635   0.75898   0.00000  Uiso   1.00
N274   N     0.42183   0.66830   0.68343   0.00000  Uiso   1.00
N275   N     0.33910   0.37893   0.08416   0.00000  Uiso   1.00
N276   N     0.24920   0.11976   0.78403   0.00000  Uiso   1.00
C277   C     0.59176   0.78327   0.96341   0.00000  Uiso   1.00
C278   C     0.58284   0.88593   0.02891   0.00000  Uiso   1.00
C279   C     0.54381   0.91523   0.09766   0.00000  Uiso   1.00
C280   C     0.54221   0.01235   0.15022   0.00000  Uiso   1.00
C281   C     0.52284   0.16183   0.25427   0.00000  Uiso   1.00
C282   C     0.60814   0.81253   0.83718   0.00000  Uiso   1.00
C283   C     0.59039   0.78010   0.74472   0.00000  Uiso   1.00
C284   C     0.61009   0.81543   0.63588   0.00000  Uiso   1.00
C285   C     0.63003   0.85090   0.44225   0.00000  Uiso   1.00
C286   C     0.62991   0.73385   0.00433   0.00000  Uiso   1.00
C287   C     0.63047   0.63525   0.05238   0.00000  Uiso   1.00
C288   C     0.66850   0.60433   0.08425   0.00000  Uiso   1.00
C289   C     0.72224   0.51763   0.15014   0.00000  Uiso   1.00
C290   C     0.65830   0.90365   0.93451   0.00000  Uiso   1.00
C291   C     0.61898   0.95131   0.01321   0.00000  Uiso   1.00
C292   C     0.61743   0.04841   0.06569   0.00000  Uiso   1.00
C293   C     0.57841   0.07785   0.13450   0.00000  Uiso   1.00
C294   C     0.64428   0.87791   0.82148   0.00000  Uiso   1.00
C295   C     0.66401   0.91329   0.71275   0.00000  Uiso   1.00
C296   C     0.64629   0.88093   0.62015   0.00000  Uiso   1.00
C297   C     0.66605   0.79923   0.98863   0.00000  Uiso   1.00
C298   C     0.70409   0.76845   0.02042   0.00000  Uiso   1.00
C299   C     0.70471   0.66983   0.06852   0.00000  Uiso   1.00
H300   H     0.56362   0.73237   0.97562   0.00000  Uiso   1.00
H301   H     0.51585   0.86461   0.10977   0.00000  Uiso   1.00
H302   H     0.56242   0.72950   0.75689   0.00000  Uiso   1.00
H303   H     0.60249   0.58468   0.06451   0.00000  Uiso   1.00
H304   H     0.47882   0.04008   0.25155   0.00000  Uiso   1.00
H305   H     0.57703   0.75516   0.50747   0.00000  Uiso   1.00
H306   H     0.66153   0.44977   0.15615   0.00000  Uiso   1.00
H307   H     0.68644   0.95455   0.92229   0.00000  Uiso   1.00
H308   H     0.64541   0.09900   0.05352   0.00000  Uiso   1.00
H309   H     0.69198   0.96388   0.70064   0.00000  Uiso   1.00
H310   H     0.73205   0.81906   0.00826   0.00000  Uiso   1.00
H311   H     0.58397   0.23032   0.20589   0.00000  Uiso   1.00
H312   H     0.68218   0.94539   0.46181   0.00000  Uiso   1.00
H313   H     0.76668   0.64001   0.11049   0.00000  Uiso   1.00
O314   O     0.50218   0.22622   0.31598   0.00000  Uiso   1.00
O315   O     0.63103   0.85240   0.33978   0.00000  Uiso   1.00
O316   O     0.74189   0.45175   0.19084   0.00000  Uiso   1.00
N317   N     0.50920   0.06502   0.22281   0.00000  Uiso   1.00
N318   N     0.60102   0.79865   0.52715   0.00000  Uiso   1.00
N319   N     0.68002   0.51313   0.13358   0.00000  Uiso   1.00
N320   N     0.56578   0.16739   0.19824   0.00000  Uiso   1.00
N321   N     0.65760   0.90102   0.50258   0.00000  Uiso   1.00
N322   N     0.73660   0.61550   0.10901   0.00000  Uiso   1.00
C323   C     0.89793   0.77649   0.49001   0.00000  Uiso   1.00
C324   C     0.90627   0.88124   0.54255   0.00000  Uiso   1.00
C325   C     0.94462   0.91171   0.57276   0.00000  Uiso   1.00
C326   C     0.94577   0.01070   0.61959   0.00000  Uiso   1.00
C327   C     0.96420   0.16331   0.69868   0.00000  Uiso   1.00
C328   C     0.88347   0.80150   0.37738   0.00000  Uiso   1.00
C329   C     0.90266   0.76492   0.26872   0.00000  Uiso   1.00
C330   C     0.88461   0.79678   0.17651   0.00000  Uiso   1.00
C331   C     0.86763   0.82553   0.99919   0.00000  Uiso   1.00
C332   C     0.85870   0.73008   0.57028   0.00000  Uiso   1.00
C333   C     0.85705   0.63344   0.62379   0.00000  Uiso   1.00
C334   C     0.81814   0.60515   0.69396   0.00000  Uiso   1.00
C335   C     0.76269   0.52302   0.81614   0.00000  Uiso   1.00
C336   C     0.83176   0.89811   0.51947   0.00000  Uiso   1.00
C337   C     0.87033   0.94729   0.55855   0.00000  Uiso   1.00
C338   C     0.87142   0.04626   0.60535   0.00000  Uiso   1.00
C339   C     0.90977   0.07687   0.63562   0.00000  Uiso   1.00
C340   C     0.84753   0.86756   0.39338   0.00000  Uiso   1.00
C341   C     0.82945   0.89947   0.30131   0.00000  Uiso   1.00
C342   C     0.84861   0.86295   0.19254   0.00000  Uiso   1.00
C343   C     0.82276   0.79614   0.58628   0.00000  Uiso   1.00
C344   C     0.78384   0.76799   0.65638   0.00000  Uiso   1.00
C345   C     0.78214   0.67132   0.70999   0.00000  Uiso   1.00
H346   H     0.92590   0.72507   0.47755   0.00000  Uiso   1.00
H347   H     0.97243   0.86057   0.56035   0.00000  Uiso   1.00
H348   H     0.93047   0.71380   0.25637   0.00000  Uiso   1.00
H349   H     0.88487   0.58234   0.61138   0.00000  Uiso   1.00
H350   H     0.00817   0.03995   0.65917   0.00000  Uiso   1.00
H351   H     0.91968   0.73043   0.01821   0.00000  Uiso   1.00
H352   H     0.82352   0.45323   0.76683   0.00000  Uiso   1.00
H353   H     0.80378   0.94953   0.53192   0.00000  Uiso   1.00
H354   H     0.84360   0.09736   0.61772   0.00000  Uiso   1.00
H355   H     0.80164   0.95058   0.31373   0.00000  Uiso   1.00
H356   H     0.75604   0.81913   0.66874   0.00000  Uiso   1.00
H357   H     0.90361   0.23213   0.70572   0.00000  Uiso   1.00
H358   H     0.81512   0.92261   0.06476   0.00000  Uiso   1.00
H359   H     0.71896   0.64542   0.81338   0.00000  Uiso   1.00
O360   O     0.98429   0.22925   0.73787   0.00000  Uiso   1.00
O361   O     0.86819   0.82316   0.89695   0.00000  Uiso   1.00
O362   O     0.74204   0.45948   0.87913   0.00000  Uiso   1.00
N363   N     0.97809   0.06488   0.65838   0.00000  Uiso   1.00
N364   N     0.89536   0.77552   0.05911   0.00000  Uiso   1.00
N365   N     0.80546   0.51635   0.75898   0.00000  Uiso   1.00
N366   N     0.92183   0.16830   0.68343   0.00000  Uiso   1.00
N367   N     0.83910   0.87893   0.08416   0.00000  Uiso   1.00
N368   N     0.74920   0.61976   0.78403   0.00000  Uiso   1.00
