data_job_01799
_audit_creation_date              2018-12-19
_audit_creation_method            'Materials Studio'
_symmetry_space_group_name_H-M    'P1'
_symmetry_Int_Tables_number       1
_symmetry_cell_setting            triclinic
loop_
_symmetry_equiv_pos_as_xyz
  x,y,z
_cell_length_a                    11.3782
_cell_length_b                    11.7486
_cell_length_c                    14.4482
_cell_angle_alpha                 78.7615
_cell_angle_beta                  69.3573
_cell_angle_gamma                 65.7105
loop_
_atom_site_label
_atom_site_type_symbol
_atom_site_fract_x
_atom_site_fract_y
_atom_site_fract_z
_atom_site_U_iso_or_equiv
_atom_site_adp_type
_atom_site_occupancy
C1     C     0.17554   0.78477   0.27909   0.00000  Uiso   1.00
C2     C     0.32437   0.76148   0.25838   0.00000  Uiso   1.00
C3     C     0.40824   0.67740   0.31168   0.00000  Uiso   1.00
C4     C     0.54126   0.66990   0.28100   0.00000  Uiso   1.00
C5     C     0.76514   0.62253   0.26120   0.00000  Uiso   1.00
C6     C     0.09861   0.92447   0.29339   0.00000  Uiso   1.00
C7     C     0.99267   0.97742   0.37613   0.00000  Uiso   1.00
C8     C     0.93564   0.10713   0.37491   0.00000  Uiso   1.00
C9     C     0.80897   0.31280   0.40944   0.00000  Uiso   1.00
C10    C     0.16331   0.76170   0.18320   0.00000  Uiso   1.00
C11    C     0.11173   0.67783   0.17330   0.00000  Uiso   1.00
C12    C     0.10915   0.67052   0.07931   0.00000  Uiso   1.00
C13    C     0.08293   0.62348   0.94276   0.00000  Uiso   1.00
C14    C     0.26263   0.92097   0.12980   0.00000  Uiso   1.00
C15    C     0.37167   0.83547   0.17729   0.00000  Uiso   1.00
C16    C     0.50460   0.82809   0.14651   0.00000  Uiso   1.00
C17    C     0.58866   0.74401   0.19976   0.00000  Uiso   1.00
C18    C     0.14592   0.99845   0.21230   0.00000  Uiso   1.00
C19    C     0.08903   0.12811   0.21095   0.00000  Uiso   1.00
C20    C     0.98303   0.18125   0.29367   0.00000  Uiso   1.00
C21    C     0.21062   0.83568   0.10211   0.00000  Uiso   1.00
C22    C     0.20810   0.82852   0.00812   0.00000  Uiso   1.00
C23    C     0.15654   0.74464   0.99808   0.00000  Uiso   1.00
H24    H     0.13870   0.72718   0.34222   0.00000  Uiso   1.00
H25    H     0.37158   0.62017   0.37444   0.00000  Uiso   1.00
H26    H     0.95607   0.92014   0.43887   0.00000  Uiso   1.00
H27    H     0.07513   0.62059   0.23607   0.00000  Uiso   1.00
H28    H     0.65063   0.53419   0.37442   0.00000  Uiso   1.00
H29    H     0.77447   0.16670   0.51025   0.00000  Uiso   1.00
H30    H     0.02552   0.53504   0.08261   0.00000  Uiso   1.00
H31    H     0.29946   0.97858   0.06666   0.00000  Uiso   1.00
H32    H     0.54118   0.88536   0.08375   0.00000  Uiso   1.00
H33    H     0.12566   0.18534   0.14818   0.00000  Uiso   1.00
H34    H     0.24472   0.88579   0.94539   0.00000  Uiso   1.00
H35    H     0.78828   0.74943   0.13849   0.00000  Uiso   1.00
H36    H     0.91211   0.38195   0.27432   0.00000  Uiso   1.00
H37    H     0.16317   0.75028   0.84669   0.00000  Uiso   1.00
O38    O     0.87555   0.57598   0.27269   0.00000  Uiso   1.00
O39    O     0.72604   0.40581   0.45089   0.00000  Uiso   1.00
O40    O     0.05542   0.57708   0.88984   0.00000  Uiso   1.00
N41    N     0.64986   0.59762   0.31653   0.00000  Uiso   1.00
N42    N     0.83071   0.18898   0.44354   0.00000  Uiso   1.00
N43    N     0.06539   0.59846   0.04374   0.00000  Uiso   1.00
N44    N     0.72393   0.71344   0.18958   0.00000  Uiso   1.00
N45    N     0.90478   0.30480   0.31659   0.00000  Uiso   1.00
N46    N     0.13946   0.71428   0.91679   0.00000  Uiso   1.00
C47    C     0.82446   0.21523   0.72091   0.00000  Uiso   1.00
C48    C     0.67563   0.23852   0.74162   0.00000  Uiso   1.00
C49    C     0.59176   0.32260   0.68832   0.00000  Uiso   1.00
C50    C     0.45874   0.33010   0.71900   0.00000  Uiso   1.00
C51    C     0.23486   0.37747   0.73880   0.00000  Uiso   1.00
C52    C     0.90139   0.07553   0.70661   0.00000  Uiso   1.00
C53    C     0.00733   0.02258   0.62387   0.00000  Uiso   1.00
C54    C     0.06436   0.89287   0.62509   0.00000  Uiso   1.00
C55    C     0.19103   0.68720   0.59056   0.00000  Uiso   1.00
C56    C     0.83669   0.23830   0.81680   0.00000  Uiso   1.00
C57    C     0.88827   0.32217   0.82670   0.00000  Uiso   1.00
C58    C     0.89085   0.32948   0.92069   0.00000  Uiso   1.00
C59    C     0.91707   0.37652   0.05724   0.00000  Uiso   1.00
C60    C     0.73737   0.07903   0.87020   0.00000  Uiso   1.00
C61    C     0.62833   0.16453   0.82271   0.00000  Uiso   1.00
C62    C     0.49540   0.17191   0.85349   0.00000  Uiso   1.00
C63    C     0.41134   0.25599   0.80024   0.00000  Uiso   1.00
C64    C     0.85408   0.00155   0.78770   0.00000  Uiso   1.00
C65    C     0.91097   0.87189   0.78905   0.00000  Uiso   1.00
C66    C     0.01697   0.81875   0.70633   0.00000  Uiso   1.00
C67    C     0.78938   0.16432   0.89789   0.00000  Uiso   1.00
C68    C     0.79190   0.17148   0.99188   0.00000  Uiso   1.00
C69    C     0.84346   0.25536   0.00192   0.00000  Uiso   1.00
H70    H     0.86130   0.27282   0.65778   0.00000  Uiso   1.00
H71    H     0.62842   0.37983   0.62556   0.00000  Uiso   1.00
H72    H     0.04393   0.07986   0.56113   0.00000  Uiso   1.00
H73    H     0.92487   0.37941   0.76393   0.00000  Uiso   1.00
H74    H     0.34937   0.46581   0.62558   0.00000  Uiso   1.00
H75    H     0.22553   0.83330   0.48975   0.00000  Uiso   1.00
H76    H     0.97448   0.46496   0.91739   0.00000  Uiso   1.00
H77    H     0.70054   0.02142   0.93334   0.00000  Uiso   1.00
H78    H     0.45882   0.11464   0.91625   0.00000  Uiso   1.00
H79    H     0.87434   0.81466   0.85182   0.00000  Uiso   1.00
H80    H     0.75528   0.11421   0.05461   0.00000  Uiso   1.00
H81    H     0.21172   0.25057   0.86151   0.00000  Uiso   1.00
H82    H     0.08789   0.61805   0.72568   0.00000  Uiso   1.00
H83    H     0.83683   0.24972   0.15331   0.00000  Uiso   1.00
O84    O     0.12445   0.42402   0.72731   0.00000  Uiso   1.00
O85    O     0.27396   0.59419   0.54911   0.00000  Uiso   1.00
O86    O     0.94458   0.42292   0.11016   0.00000  Uiso   1.00
N87    N     0.35014   0.40238   0.68347   0.00000  Uiso   1.00
N88    N     0.16929   0.81102   0.55646   0.00000  Uiso   1.00
N89    N     0.93461   0.40154   0.95626   0.00000  Uiso   1.00
N90    N     0.27607   0.28656   0.81042   0.00000  Uiso   1.00
N91    N     0.09522   0.69520   0.68341   0.00000  Uiso   1.00
N92    N     0.86054   0.28572   0.08321   0.00000  Uiso   1.00
