data_job_05115
_audit_creation_date              2018-12-19
_audit_creation_method            'Materials Studio'
_symmetry_space_group_name_H-M    'P1'
_symmetry_Int_Tables_number       1
_symmetry_cell_setting            triclinic
loop_
_symmetry_equiv_pos_as_xyz
  x,y,z
_cell_length_a                    18.8973
_cell_length_b                    15.6043
_cell_length_c                    20.5657
_cell_angle_alpha                 90.0000
_cell_angle_beta                  71.3096
_cell_angle_gamma                 90.0000
loop_
_atom_site_label
_atom_site_type_symbol
_atom_site_fract_x
_atom_site_fract_y
_atom_site_fract_z
_atom_site_U_iso_or_equiv
_atom_site_adp_type
_atom_site_occupancy
C1     C     0.98574   0.69529   0.26049   0.00000  Uiso   1.00
C2     C     0.92310   0.66129   0.32206   0.00000  Uiso   1.00
C3     C     0.92590   0.65318   0.38839   0.00000  Uiso   1.00
C4     C     0.86277   0.62071   0.43750   0.00000  Uiso   1.00
C5     C     0.77520   0.57145   0.53564   0.00000  Uiso   1.00
C6     C     0.00152   0.62507   0.20613   0.00000  Uiso   1.00
C7     C     0.07025   0.58652   0.17498   0.00000  Uiso   1.00
C8     C     0.07313   0.52357   0.12649   0.00000  Uiso   1.00
C9     C     0.10731   0.41813   0.04461   0.00000  Uiso   1.00
C10    C     0.95236   0.76985   0.23221   0.00000  Uiso   1.00
C11    C     0.97978   0.85303   0.22296   0.00000  Uiso   1.00
C12    C     0.94129   0.91197   0.19640   0.00000  Uiso   1.00
C13    C     0.89915   0.03133   0.15500   0.00000  Uiso   1.00
C14    C     0.86865   0.65205   0.22975   0.00000  Uiso   1.00
C15    C     0.85950   0.63780   0.30536   0.00000  Uiso   1.00
C16    C     0.79635   0.60534   0.35438   0.00000  Uiso   1.00
C17    C     0.79906   0.59718   0.42078   0.00000  Uiso   1.00
C18    C     0.93792   0.60159   0.18943   0.00000  Uiso   1.00
C19    C     0.94070   0.53868   0.14097   0.00000  Uiso   1.00
C20    C     0.00942   0.50004   0.10976   0.00000  Uiso   1.00
C21    C     0.88876   0.74637   0.21551   0.00000  Uiso   1.00
C22    C     0.85022   0.80519   0.18895   0.00000  Uiso   1.00
C23    C     0.87757   0.88844   0.17967   0.00000  Uiso   1.00
H24    H     0.03526   0.71357   0.27349   0.00000  Uiso   1.00
H25    H     0.97513   0.67136   0.40129   0.00000  Uiso   1.00
H26    H     0.11946   0.60472   0.18791   0.00000  Uiso   1.00
H27    H     0.02900   0.87118   0.23589   0.00000  Uiso   1.00
H28    H     0.88044   0.61417   0.53562   0.00000  Uiso   1.00
H29    H     0.18476   0.47367   0.08568   0.00000  Uiso   1.00
H30    H     0.99401   0.03557   0.18684   0.00000  Uiso   1.00
H31    H     0.81913   0.63376   0.21675   0.00000  Uiso   1.00
H32    H     0.74714   0.58717   0.34145   0.00000  Uiso   1.00
H33    H     0.89147   0.52052   0.12806   0.00000  Uiso   1.00
H34    H     0.80101   0.78699   0.17604   0.00000  Uiso   1.00
H35    H     0.69540   0.54583   0.48705   0.00000  Uiso   1.00
H36    H     0.99972   0.40534   0.03710   0.00000  Uiso   1.00
H37    H     0.80896   0.96724   0.13826   0.00000  Uiso   1.00
O38    O     0.74447   0.55076   0.59439   0.00000  Uiso   1.00
O39    O     0.14374   0.36645   0.00406   0.00000  Uiso   1.00
O40    O     0.89347   0.10365   0.13679   0.00000  Uiso   1.00
N41    N     0.84676   0.60449   0.50708   0.00000  Uiso   1.00
N42    N     0.13129   0.47313   0.08641   0.00000  Uiso   1.00
N43    N     0.95296   0.99846   0.18098   0.00000  Uiso   1.00
N44    N     0.74719   0.56772   0.48094   0.00000  Uiso   1.00
N45    N     0.03172   0.43636   0.06028   0.00000  Uiso   1.00
N46    N     0.85339   0.96169   0.15484   0.00000  Uiso   1.00
C47    C     0.48643   0.32684   0.26039   0.00000  Uiso   1.00
C48    C     0.43214   0.29295   0.32741   0.00000  Uiso   1.00
C49    C     0.44691   0.28451   0.38899   0.00000  Uiso   1.00
C50    C     0.38988   0.25220   0.44443   0.00000  Uiso   1.00
C51    C     0.31613   0.20304   0.54939   0.00000  Uiso   1.00
C52    C     0.49281   0.25679   0.20711   0.00000  Uiso   1.00
C53    C     0.55859   0.21794   0.16755   0.00000  Uiso   1.00
C54    C     0.55263   0.15520   0.12171   0.00000  Uiso   1.00
C55    C     0.57308   0.04994   0.03988   0.00000  Uiso   1.00
C56    C     0.44695   0.40176   0.23906   0.00000  Uiso   1.00
C57    C     0.47418   0.48480   0.22635   0.00000  Uiso   1.00
C58    C     0.42962   0.54411   0.20740   0.00000  Uiso   1.00
C59    C     0.37886   0.66393   0.17518   0.00000  Uiso   1.00
C60    C     0.35891   0.28450   0.24932   0.00000  Uiso   1.00
C61    C     0.36288   0.26995   0.32139   0.00000  Uiso   1.00
C62    C     0.30581   0.23766   0.37675   0.00000  Uiso   1.00
C63    C     0.32049   0.22917   0.43841   0.00000  Uiso   1.00
C64    C     0.42355   0.23379   0.20110   0.00000  Uiso   1.00
C65    C     0.41750   0.17109   0.15530   0.00000  Uiso   1.00
C66    C     0.48324   0.13216   0.11569   0.00000  Uiso   1.00
C67    C     0.37769   0.37876   0.23305   0.00000  Uiso   1.00
C68    C     0.33308   0.43795   0.21411   0.00000  Uiso   1.00
C69    C     0.36023   0.52107   0.20137   0.00000  Uiso   1.00
H70    H     0.54036   0.34474   0.26507   0.00000  Uiso   1.00
H71    H     0.50052   0.30230   0.39363   0.00000  Uiso   1.00
H72    H     0.61218   0.23576   0.17221   0.00000  Uiso   1.00
H73    H     0.52778   0.50257   0.23101   0.00000  Uiso   1.00
H74    H     0.42581   0.24508   0.53350   0.00000  Uiso   1.00
H75    H     0.66126   0.10479   0.06662   0.00000  Uiso   1.00
H76    H     0.48329   0.66742   0.19060   0.00000  Uiso   1.00
H77    H     0.30498   0.26659   0.24464   0.00000  Uiso   1.00
H78    H     0.25222   0.21986   0.37208   0.00000  Uiso   1.00
H79    H     0.36388   0.15332   0.15066   0.00000  Uiso   1.00
H80    H     0.27948   0.42013   0.20946   0.00000  Uiso   1.00
H81    H     0.22428   0.17816   0.51600   0.00000  Uiso   1.00
H82    H     0.45973   0.03787   0.04912   0.00000  Uiso   1.00
H83    H     0.28176   0.60050   0.17311   0.00000  Uiso   1.00
O84    O     0.29460   0.18227   0.60895   0.00000  Uiso   1.00
O85    O     0.60350   0.99822   0.99641   0.00000  Uiso   1.00
O86    O     0.37000   0.73638   0.15907   0.00000  Uiso   1.00
N87    N     0.38562   0.23576   0.51189   0.00000  Uiso   1.00
N88    N     0.60575   0.10459   0.07540   0.00000  Uiso   1.00
N89    N     0.43937   0.63059   0.19129   0.00000  Uiso   1.00
N90    N     0.27718   0.19975   0.50248   0.00000  Uiso   1.00
N91    N     0.49731   0.06858   0.06599   0.00000  Uiso   1.00
N92    N     0.33092   0.59459   0.18188   0.00000  Uiso   1.00
C93    C     0.01426   0.19529   0.23951   0.00000  Uiso   1.00
C94    C     0.07690   0.16129   0.17794   0.00000  Uiso   1.00
C95    C     0.07410   0.15318   0.11161   0.00000  Uiso   1.00
C96    C     0.13723   0.12071   0.06250   0.00000  Uiso   1.00
C97    C     0.22480   0.07145   0.96436   0.00000  Uiso   1.00
C98    C     0.99848   0.12507   0.29387   0.00000  Uiso   1.00
C99    C     0.92975   0.08652   0.32502   0.00000  Uiso   1.00
C100   C     0.92687   0.02357   0.37351   0.00000  Uiso   1.00
C101   C     0.89269   0.91813   0.45539   0.00000  Uiso   1.00
C102   C     0.04764   0.26985   0.26779   0.00000  Uiso   1.00
C103   C     0.02022   0.35303   0.27704   0.00000  Uiso   1.00
C104   C     0.05871   0.41197   0.30360   0.00000  Uiso   1.00
C105   C     0.10085   0.53133   0.34500   0.00000  Uiso   1.00
C106   C     0.13135   0.15205   0.27025   0.00000  Uiso   1.00
C107   C     0.14050   0.13780   0.19464   0.00000  Uiso   1.00
C108   C     0.20365   0.10534   0.14562   0.00000  Uiso   1.00
C109   C     0.20094   0.09718   0.07922   0.00000  Uiso   1.00
C110   C     0.06208   0.10159   0.31057   0.00000  Uiso   1.00
C111   C     0.05930   0.03868   0.35903   0.00000  Uiso   1.00
C112   C     0.99058   0.00004   0.39024   0.00000  Uiso   1.00
C113   C     0.11124   0.24637   0.28449   0.00000  Uiso   1.00
C114   C     0.14978   0.30519   0.31105   0.00000  Uiso   1.00
C115   C     0.12243   0.38844   0.32033   0.00000  Uiso   1.00
H116   H     0.96474   0.21357   0.22651   0.00000  Uiso   1.00
H117   H     0.02487   0.17136   0.09871   0.00000  Uiso   1.00
H118   H     0.88054   0.10472   0.31209   0.00000  Uiso   1.00
H119   H     0.97100   0.37118   0.26411   0.00000  Uiso   1.00
H120   H     0.11956   0.11417   0.96438   0.00000  Uiso   1.00
H121   H     0.81524   0.97367   0.41432   0.00000  Uiso   1.00
H122   H     0.00599   0.53557   0.31316   0.00000  Uiso   1.00
H123   H     0.18087   0.13376   0.28325   0.00000  Uiso   1.00
H124   H     0.25286   0.08717   0.15855   0.00000  Uiso   1.00
H125   H     0.10853   0.02052   0.37194   0.00000  Uiso   1.00
H126   H     0.19899   0.28699   0.32396   0.00000  Uiso   1.00
H127   H     0.30460   0.04583   0.01295   0.00000  Uiso   1.00
H128   H     0.00028   0.90534   0.46290   0.00000  Uiso   1.00
H129   H     0.19104   0.46724   0.36174   0.00000  Uiso   1.00
O130   O     0.25553   0.05076   0.90561   0.00000  Uiso   1.00
O131   O     0.85626   0.86645   0.49594   0.00000  Uiso   1.00
O132   O     0.10653   0.60365   0.36321   0.00000  Uiso   1.00
N133   N     0.15324   0.10449   0.99292   0.00000  Uiso   1.00
N134   N     0.86871   0.97313   0.41359   0.00000  Uiso   1.00
N135   N     0.04704   0.49846   0.31902   0.00000  Uiso   1.00
N136   N     0.25281   0.06772   0.01906   0.00000  Uiso   1.00
N137   N     0.96828   0.93636   0.43972   0.00000  Uiso   1.00
N138   N     0.14661   0.46169   0.34516   0.00000  Uiso   1.00
C139   C     0.51357   0.82684   0.23961   0.00000  Uiso   1.00
C140   C     0.56786   0.79295   0.17259   0.00000  Uiso   1.00
C141   C     0.55309   0.78451   0.11101   0.00000  Uiso   1.00
C142   C     0.61012   0.75220   0.05557   0.00000  Uiso   1.00
C143   C     0.68387   0.70304   0.95061   0.00000  Uiso   1.00
C144   C     0.50719   0.75679   0.29289   0.00000  Uiso   1.00
C145   C     0.44141   0.71794   0.33245   0.00000  Uiso   1.00
C146   C     0.44737   0.65520   0.37829   0.00000  Uiso   1.00
C147   C     0.42692   0.54994   0.46012   0.00000  Uiso   1.00
C148   C     0.55305   0.90176   0.26094   0.00000  Uiso   1.00
C149   C     0.52582   0.98480   0.27365   0.00000  Uiso   1.00
C150   C     0.57038   0.04411   0.29260   0.00000  Uiso   1.00
C151   C     0.62114   0.16393   0.32482   0.00000  Uiso   1.00
C152   C     0.64109   0.78450   0.25068   0.00000  Uiso   1.00
C153   C     0.63712   0.76995   0.17861   0.00000  Uiso   1.00
C154   C     0.69419   0.73766   0.12325   0.00000  Uiso   1.00
C155   C     0.67951   0.72917   0.06159   0.00000  Uiso   1.00
C156   C     0.57645   0.73379   0.29890   0.00000  Uiso   1.00
C157   C     0.58250   0.67109   0.34470   0.00000  Uiso   1.00
C158   C     0.51676   0.63216   0.38431   0.00000  Uiso   1.00
C159   C     0.62231   0.87876   0.26695   0.00000  Uiso   1.00
C160   C     0.66692   0.93795   0.28589   0.00000  Uiso   1.00
C161   C     0.63977   0.02107   0.29863   0.00000  Uiso   1.00
H162   H     0.45964   0.84474   0.23493   0.00000  Uiso   1.00
H163   H     0.49948   0.80230   0.10637   0.00000  Uiso   1.00
H164   H     0.38782   0.73576   0.32779   0.00000  Uiso   1.00
H165   H     0.47222   0.00257   0.26899   0.00000  Uiso   1.00
H166   H     0.57419   0.74508   0.96650   0.00000  Uiso   1.00
H167   H     0.33874   0.60479   0.43338   0.00000  Uiso   1.00
H168   H     0.51671   0.16742   0.30940   0.00000  Uiso   1.00
H169   H     0.69502   0.76659   0.25536   0.00000  Uiso   1.00
H170   H     0.74778   0.71986   0.12792   0.00000  Uiso   1.00
H171   H     0.63612   0.65332   0.34934   0.00000  Uiso   1.00
H172   H     0.72052   0.92013   0.29054   0.00000  Uiso   1.00
H173   H     0.77572   0.67816   0.98400   0.00000  Uiso   1.00
H174   H     0.54027   0.53787   0.45088   0.00000  Uiso   1.00
H175   H     0.71824   0.10050   0.32689   0.00000  Uiso   1.00
O176   O     0.70540   0.68227   0.89105   0.00000  Uiso   1.00
O177   O     0.39650   0.49822   0.50359   0.00000  Uiso   1.00
O178   O     0.63000   0.23638   0.34093   0.00000  Uiso   1.00
N179   N     0.61438   0.73576   0.98811   0.00000  Uiso   1.00
N180   N     0.39425   0.60459   0.42460   0.00000  Uiso   1.00
N181   N     0.56063   0.13059   0.30871   0.00000  Uiso   1.00
N182   N     0.72282   0.69975   0.99752   0.00000  Uiso   1.00
N183   N     0.50269   0.56858   0.43401   0.00000  Uiso   1.00
N184   N     0.66908   0.09459   0.31812   0.00000  Uiso   1.00
C185   C     0.01426   0.30471   0.73951   0.00000  Uiso   1.00
C186   C     0.07690   0.33871   0.67794   0.00000  Uiso   1.00
C187   C     0.07410   0.34682   0.61161   0.00000  Uiso   1.00
C188   C     0.13723   0.37929   0.56250   0.00000  Uiso   1.00
C189   C     0.22480   0.42855   0.46436   0.00000  Uiso   1.00
C190   C     0.99848   0.37493   0.79387   0.00000  Uiso   1.00
C191   C     0.92975   0.41348   0.82502   0.00000  Uiso   1.00
C192   C     0.92687   0.47643   0.87351   0.00000  Uiso   1.00
C193   C     0.89269   0.58187   0.95539   0.00000  Uiso   1.00
C194   C     0.04764   0.23015   0.76779   0.00000  Uiso   1.00
C195   C     0.02022   0.14697   0.77704   0.00000  Uiso   1.00
C196   C     0.05871   0.08803   0.80360   0.00000  Uiso   1.00
C197   C     0.10085   0.96867   0.84500   0.00000  Uiso   1.00
C198   C     0.13135   0.34795   0.77025   0.00000  Uiso   1.00
C199   C     0.14050   0.36220   0.69464   0.00000  Uiso   1.00
C200   C     0.20365   0.39466   0.64562   0.00000  Uiso   1.00
C201   C     0.20094   0.40282   0.57922   0.00000  Uiso   1.00
C202   C     0.06208   0.39841   0.81057   0.00000  Uiso   1.00
C203   C     0.05930   0.46132   0.85903   0.00000  Uiso   1.00
C204   C     0.99058   0.49996   0.89024   0.00000  Uiso   1.00
C205   C     0.11124   0.25363   0.78449   0.00000  Uiso   1.00
C206   C     0.14978   0.19481   0.81105   0.00000  Uiso   1.00
C207   C     0.12243   0.11156   0.82033   0.00000  Uiso   1.00
H208   H     0.96474   0.28643   0.72651   0.00000  Uiso   1.00
H209   H     0.02487   0.32864   0.59871   0.00000  Uiso   1.00
H210   H     0.88054   0.39528   0.81209   0.00000  Uiso   1.00
H211   H     0.97100   0.12882   0.76411   0.00000  Uiso   1.00
H212   H     0.11956   0.38583   0.46438   0.00000  Uiso   1.00
H213   H     0.81524   0.52633   0.91432   0.00000  Uiso   1.00
H214   H     0.00599   0.96443   0.81316   0.00000  Uiso   1.00
H215   H     0.18087   0.36624   0.78325   0.00000  Uiso   1.00
H216   H     0.25286   0.41283   0.65855   0.00000  Uiso   1.00
H217   H     0.10853   0.47948   0.87194   0.00000  Uiso   1.00
H218   H     0.19899   0.21301   0.82396   0.00000  Uiso   1.00
H219   H     0.30460   0.45417   0.51295   0.00000  Uiso   1.00
H220   H     0.00028   0.59466   0.96290   0.00000  Uiso   1.00
H221   H     0.19104   0.03276   0.86174   0.00000  Uiso   1.00
O222   O     0.25553   0.44924   0.40561   0.00000  Uiso   1.00
O223   O     0.85626   0.63355   0.99594   0.00000  Uiso   1.00
O224   O     0.10653   0.89635   0.86321   0.00000  Uiso   1.00
N225   N     0.15324   0.39551   0.49292   0.00000  Uiso   1.00
N226   N     0.86871   0.52687   0.91359   0.00000  Uiso   1.00
N227   N     0.04704   0.00154   0.81902   0.00000  Uiso   1.00
N228   N     0.25281   0.43228   0.51906   0.00000  Uiso   1.00
N229   N     0.96828   0.56364   0.93972   0.00000  Uiso   1.00
N230   N     0.14661   0.03831   0.84516   0.00000  Uiso   1.00
C231   C     0.51357   0.67316   0.73961   0.00000  Uiso   1.00
C232   C     0.56786   0.70705   0.67259   0.00000  Uiso   1.00
C233   C     0.55309   0.71549   0.61101   0.00000  Uiso   1.00
C234   C     0.61012   0.74780   0.55557   0.00000  Uiso   1.00
C235   C     0.68387   0.79696   0.45061   0.00000  Uiso   1.00
C236   C     0.50719   0.74321   0.79289   0.00000  Uiso   1.00
C237   C     0.44141   0.78206   0.83245   0.00000  Uiso   1.00
C238   C     0.44737   0.84480   0.87829   0.00000  Uiso   1.00
C239   C     0.42692   0.95006   0.96012   0.00000  Uiso   1.00
C240   C     0.55305   0.59824   0.76094   0.00000  Uiso   1.00
C241   C     0.52582   0.51520   0.77365   0.00000  Uiso   1.00
C242   C     0.57038   0.45589   0.79260   0.00000  Uiso   1.00
C243   C     0.62114   0.33607   0.82482   0.00000  Uiso   1.00
C244   C     0.64109   0.71550   0.75068   0.00000  Uiso   1.00
C245   C     0.63712   0.73005   0.67861   0.00000  Uiso   1.00
C246   C     0.69419   0.76234   0.62325   0.00000  Uiso   1.00
C247   C     0.67951   0.77083   0.56159   0.00000  Uiso   1.00
C248   C     0.57645   0.76621   0.79890   0.00000  Uiso   1.00
C249   C     0.58250   0.82891   0.84470   0.00000  Uiso   1.00
C250   C     0.51676   0.86784   0.88431   0.00000  Uiso   1.00
C251   C     0.62231   0.62124   0.76695   0.00000  Uiso   1.00
C252   C     0.66692   0.56205   0.78589   0.00000  Uiso   1.00
C253   C     0.63977   0.47893   0.79863   0.00000  Uiso   1.00
H254   H     0.45964   0.65526   0.73493   0.00000  Uiso   1.00
H255   H     0.49948   0.69770   0.60637   0.00000  Uiso   1.00
H256   H     0.38782   0.76424   0.82779   0.00000  Uiso   1.00
H257   H     0.47222   0.49743   0.76899   0.00000  Uiso   1.00
H258   H     0.57419   0.75492   0.46650   0.00000  Uiso   1.00
H259   H     0.33874   0.89521   0.93338   0.00000  Uiso   1.00
H260   H     0.51671   0.33258   0.80940   0.00000  Uiso   1.00
H261   H     0.69502   0.73341   0.75536   0.00000  Uiso   1.00
H262   H     0.74778   0.78014   0.62792   0.00000  Uiso   1.00
H263   H     0.63612   0.84668   0.84934   0.00000  Uiso   1.00
H264   H     0.72052   0.57987   0.79054   0.00000  Uiso   1.00
H265   H     0.77572   0.82184   0.48400   0.00000  Uiso   1.00
H266   H     0.54027   0.96213   0.95088   0.00000  Uiso   1.00
H267   H     0.71824   0.39950   0.82689   0.00000  Uiso   1.00
O268   O     0.70540   0.81773   0.39105   0.00000  Uiso   1.00
O269   O     0.39650   0.00178   0.00359   0.00000  Uiso   1.00
O270   O     0.63000   0.26362   0.84093   0.00000  Uiso   1.00
N271   N     0.61438   0.76424   0.48811   0.00000  Uiso   1.00
N272   N     0.39425   0.89541   0.92460   0.00000  Uiso   1.00
N273   N     0.56063   0.36941   0.80871   0.00000  Uiso   1.00
N274   N     0.72282   0.80025   0.49752   0.00000  Uiso   1.00
N275   N     0.50269   0.93142   0.93401   0.00000  Uiso   1.00
N276   N     0.66908   0.40541   0.81812   0.00000  Uiso   1.00
C277   C     0.98574   0.80471   0.76049   0.00000  Uiso   1.00
C278   C     0.92310   0.83871   0.82206   0.00000  Uiso   1.00
C279   C     0.92590   0.84682   0.88839   0.00000  Uiso   1.00
C280   C     0.86277   0.87929   0.93750   0.00000  Uiso   1.00
C281   C     0.77520   0.92855   0.03564   0.00000  Uiso   1.00
C282   C     0.00152   0.87493   0.70613   0.00000  Uiso   1.00
C283   C     0.07025   0.91348   0.67498   0.00000  Uiso   1.00
C284   C     0.07313   0.97643   0.62649   0.00000  Uiso   1.00
C285   C     0.10731   0.08187   0.54461   0.00000  Uiso   1.00
C286   C     0.95236   0.73015   0.73221   0.00000  Uiso   1.00
C287   C     0.97978   0.64697   0.72296   0.00000  Uiso   1.00
C288   C     0.94129   0.58803   0.69640   0.00000  Uiso   1.00
C289   C     0.89915   0.46867   0.65500   0.00000  Uiso   1.00
C290   C     0.86865   0.84795   0.72975   0.00000  Uiso   1.00
C291   C     0.85950   0.86220   0.80536   0.00000  Uiso   1.00
C292   C     0.79635   0.89466   0.85438   0.00000  Uiso   1.00
C293   C     0.79906   0.90282   0.92078   0.00000  Uiso   1.00
C294   C     0.93792   0.89841   0.68943   0.00000  Uiso   1.00
C295   C     0.94070   0.96132   0.64097   0.00000  Uiso   1.00
C296   C     0.00942   0.99996   0.60976   0.00000  Uiso   1.00
C297   C     0.88876   0.75363   0.71551   0.00000  Uiso   1.00
C298   C     0.85022   0.69481   0.68895   0.00000  Uiso   1.00
C299   C     0.87757   0.61156   0.67967   0.00000  Uiso   1.00
H300   H     0.03526   0.78643   0.77349   0.00000  Uiso   1.00
H301   H     0.97513   0.82864   0.90129   0.00000  Uiso   1.00
H302   H     0.11946   0.89528   0.68791   0.00000  Uiso   1.00
H303   H     0.02900   0.62882   0.73589   0.00000  Uiso   1.00
H304   H     0.88044   0.88583   0.03562   0.00000  Uiso   1.00
H305   H     0.18476   0.02633   0.58568   0.00000  Uiso   1.00
H306   H     0.99401   0.46443   0.68684   0.00000  Uiso   1.00
H307   H     0.81913   0.86624   0.71675   0.00000  Uiso   1.00
H308   H     0.74714   0.91283   0.84145   0.00000  Uiso   1.00
H309   H     0.89147   0.97948   0.62806   0.00000  Uiso   1.00
H310   H     0.80101   0.71301   0.67604   0.00000  Uiso   1.00
H311   H     0.69540   0.95417   0.98705   0.00000  Uiso   1.00
H312   H     0.99972   0.09466   0.53710   0.00000  Uiso   1.00
H313   H     0.80896   0.53276   0.63826   0.00000  Uiso   1.00
O314   O     0.74447   0.94924   0.09439   0.00000  Uiso   1.00
O315   O     0.14374   0.13355   0.50406   0.00000  Uiso   1.00
O316   O     0.89347   0.39635   0.63679   0.00000  Uiso   1.00
N317   N     0.84676   0.89551   0.00708   0.00000  Uiso   1.00
N318   N     0.13129   0.02687   0.58641   0.00000  Uiso   1.00
N319   N     0.95296   0.50154   0.68098   0.00000  Uiso   1.00
N320   N     0.74719   0.93228   0.98094   0.00000  Uiso   1.00
N321   N     0.03172   0.06364   0.56028   0.00000  Uiso   1.00
N322   N     0.85339   0.53831   0.65484   0.00000  Uiso   1.00
C323   C     0.48643   0.17316   0.76039   0.00000  Uiso   1.00
C324   C     0.43214   0.20705   0.82741   0.00000  Uiso   1.00
C325   C     0.44691   0.21549   0.88899   0.00000  Uiso   1.00
C326   C     0.38988   0.24780   0.94443   0.00000  Uiso   1.00
C327   C     0.31613   0.29696   0.04939   0.00000  Uiso   1.00
C328   C     0.49281   0.24321   0.70711   0.00000  Uiso   1.00
C329   C     0.55859   0.28206   0.66755   0.00000  Uiso   1.00
C330   C     0.55263   0.34480   0.62171   0.00000  Uiso   1.00
C331   C     0.57308   0.45006   0.53988   0.00000  Uiso   1.00
C332   C     0.44695   0.09824   0.73906   0.00000  Uiso   1.00
C333   C     0.47418   0.01520   0.72635   0.00000  Uiso   1.00
C334   C     0.42962   0.95589   0.70740   0.00000  Uiso   1.00
C335   C     0.37886   0.83607   0.67518   0.00000  Uiso   1.00
C336   C     0.35891   0.21550   0.74932   0.00000  Uiso   1.00
C337   C     0.36288   0.23005   0.82139   0.00000  Uiso   1.00
C338   C     0.30581   0.26234   0.87675   0.00000  Uiso   1.00
C339   C     0.32049   0.27083   0.93841   0.00000  Uiso   1.00
C340   C     0.42355   0.26621   0.70110   0.00000  Uiso   1.00
C341   C     0.41750   0.32891   0.65530   0.00000  Uiso   1.00
C342   C     0.48324   0.36784   0.61569   0.00000  Uiso   1.00
C343   C     0.37769   0.12124   0.73305   0.00000  Uiso   1.00
C344   C     0.33308   0.06205   0.71411   0.00000  Uiso   1.00
C345   C     0.36023   0.97893   0.70137   0.00000  Uiso   1.00
H346   H     0.54036   0.15526   0.76507   0.00000  Uiso   1.00
H347   H     0.50052   0.19770   0.89363   0.00000  Uiso   1.00
H348   H     0.61218   0.26424   0.67221   0.00000  Uiso   1.00
H349   H     0.52778   0.99743   0.73101   0.00000  Uiso   1.00
H350   H     0.42581   0.25492   0.03350   0.00000  Uiso   1.00
H351   H     0.66126   0.39521   0.56662   0.00000  Uiso   1.00
H352   H     0.48329   0.83258   0.69060   0.00000  Uiso   1.00
H353   H     0.30498   0.23341   0.74464   0.00000  Uiso   1.00
H354   H     0.25222   0.28014   0.87208   0.00000  Uiso   1.00
H355   H     0.36388   0.34668   0.65066   0.00000  Uiso   1.00
H356   H     0.27948   0.07987   0.70946   0.00000  Uiso   1.00
H357   H     0.22428   0.32184   0.01600   0.00000  Uiso   1.00
H358   H     0.45973   0.46213   0.54912   0.00000  Uiso   1.00
H359   H     0.28176   0.89950   0.67311   0.00000  Uiso   1.00
O360   O     0.29460   0.31773   0.10895   0.00000  Uiso   1.00
O361   O     0.60350   0.50178   0.49641   0.00000  Uiso   1.00
O362   O     0.37000   0.76362   0.65907   0.00000  Uiso   1.00
N363   N     0.38562   0.26424   0.01189   0.00000  Uiso   1.00
N364   N     0.60575   0.39541   0.57540   0.00000  Uiso   1.00
N365   N     0.43937   0.86941   0.69129   0.00000  Uiso   1.00
N366   N     0.27718   0.30025   0.00248   0.00000  Uiso   1.00
N367   N     0.49731   0.43142   0.56599   0.00000  Uiso   1.00
N368   N     0.33092   0.90541   0.68188   0.00000  Uiso   1.00
