data_job_06926
_audit_creation_date              2018-12-19
_audit_creation_method            'Materials Studio'
_symmetry_space_group_name_H-M    'P1'
_symmetry_Int_Tables_number       1
_symmetry_cell_setting            triclinic
loop_
_symmetry_equiv_pos_as_xyz
  x,y,z
_cell_length_a                    21.8546
_cell_length_b                    23.3434
_cell_length_c                    25.2629
_cell_angle_alpha                 65.4428
_cell_angle_beta                  103.5975
_cell_angle_gamma                 86.7858
loop_
_atom_site_label
_atom_site_type_symbol
_atom_site_fract_x
_atom_site_fract_y
_atom_site_fract_z
_atom_site_U_iso_or_equiv
_atom_site_adp_type
_atom_site_occupancy
C1     C     0.33094   0.53514   0.15879   0.00000  Uiso   1.00
C2     C     0.36243   0.51080   0.22663   0.00000  Uiso   1.00
C3     C     0.33299   0.48382   0.27217   0.00000  Uiso   1.00
C4     C     0.36998   0.46456   0.33143   0.00000  Uiso   1.00
C5     C     0.40911   0.42566   0.43476   0.00000  Uiso   1.00
C6     C     0.33935   0.60481   0.12913   0.00000  Uiso   1.00
C7     C     0.29051   0.65687   0.09270   0.00000  Uiso   1.00
C8     C     0.30807   0.71674   0.06989   0.00000  Uiso   1.00
C9     C     0.31138   0.82378   0.02182   0.00000  Uiso   1.00
C10    C     0.37192   0.49926   0.13723   0.00000  Uiso   1.00
C11    C     0.35047   0.46259   0.10759   0.00000  Uiso   1.00
C12    C     0.39546   0.43361   0.09158   0.00000  Uiso   1.00
C13    C     0.44935   0.37677   0.05608   0.00000  Uiso   1.00
C14    C     0.44898   0.54892   0.18303   0.00000  Uiso   1.00
C15    C     0.42654   0.51829   0.23979   0.00000  Uiso   1.00
C16    C     0.46359   0.49906   0.29900   0.00000  Uiso   1.00
C17    C     0.43421   0.47205   0.34463   0.00000  Uiso   1.00
C18    C     0.40346   0.61229   0.14230   0.00000  Uiso   1.00
C19    C     0.42111   0.67210   0.11953   0.00000  Uiso   1.00
C20    C     0.37231   0.72424   0.08308   0.00000  Uiso   1.00
C21    C     0.43604   0.50674   0.15040   0.00000  Uiso   1.00
C22    C     0.48107   0.47782   0.13442   0.00000  Uiso   1.00
C23    C     0.45969   0.44111   0.10477   0.00000  Uiso   1.00
H24    H     0.28102   0.52932   0.14854   0.00000  Uiso   1.00
H25    H     0.28337   0.47805   0.26197   0.00000  Uiso   1.00
H26    H     0.24089   0.65106   0.08252   0.00000  Uiso   1.00
H27    H     0.30085   0.45681   0.09741   0.00000  Uiso   1.00
H28    H     0.31424   0.42452   0.39353   0.00000  Uiso   1.00
H29    H     0.22468   0.78933   0.01514   0.00000  Uiso   1.00
H30    H     0.35111   0.37971   0.04654   0.00000  Uiso   1.00
H31    H     0.49890   0.55474   0.19328   0.00000  Uiso   1.00
H32    H     0.51321   0.50485   0.30917   0.00000  Uiso   1.00
H33    H     0.47073   0.67787   0.12972   0.00000  Uiso   1.00
H34    H     0.53069   0.48362   0.14462   0.00000  Uiso   1.00
H35    H     0.50078   0.44628   0.43184   0.00000  Uiso   1.00
H36    H     0.41123   0.81109   0.05345   0.00000  Uiso   1.00
H37    H     0.53766   0.40147   0.08485   0.00000  Uiso   1.00
O38    O     0.41299   0.40214   0.48811   0.00000  Uiso   1.00
O39    O     0.29549   0.88076   0.99167   0.00000  Uiso   1.00
O40    O     0.46136   0.34335   0.03287   0.00000  Uiso   1.00
N41    N     0.35618   0.43647   0.38664   0.00000  Uiso   1.00
N42    N     0.27245   0.77755   0.03288   0.00000  Uiso   1.00
N43    N     0.39065   0.39461   0.06222   0.00000  Uiso   1.00
N44    N     0.45656   0.44818   0.40726   0.00000  Uiso   1.00
N45    N     0.37283   0.78926   0.05349   0.00000  Uiso   1.00
N46    N     0.49103   0.40631   0.08284   0.00000  Uiso   1.00
C47    C     0.41920   0.23738   0.23581   0.00000  Uiso   1.00
C48    C     0.43277   0.16950   0.28666   0.00000  Uiso   1.00
C49    C     0.39980   0.14626   0.32986   0.00000  Uiso   1.00
C50    C     0.41955   0.08277   0.37259   0.00000  Uiso   1.00
C51    C     0.43291   0.98328   0.45165   0.00000  Uiso   1.00
C52    C     0.48174   0.26300   0.24328   0.00000  Uiso   1.00
C53    C     0.48994   0.31838   0.24999   0.00000  Uiso   1.00
C54    C     0.55091   0.33360   0.25619   0.00000  Uiso   1.00
C55    C     0.64027   0.37930   0.26784   0.00000  Uiso   1.00
C56    C     0.40731   0.23070   0.17686   0.00000  Uiso   1.00
C57    C     0.35294   0.25893   0.12773   0.00000  Uiso   1.00
C58    C     0.35126   0.24697   0.07801   0.00000  Uiso   1.00
C59    C     0.32507   0.24250   0.98655   0.00000  Uiso   1.00
C60    C     0.51291   0.16594   0.23489   0.00000  Uiso   1.00
C61    C     0.48367   0.13070   0.28616   0.00000  Uiso   1.00
C62    C     0.50348   0.06723   0.32884   0.00000  Uiso   1.00
C63    C     0.47054   0.04390   0.37209   0.00000  Uiso   1.00
C64    C     0.53264   0.22420   0.24278   0.00000  Uiso   1.00
C65    C     0.59362   0.23935   0.24897   0.00000  Uiso   1.00
C66    C     0.60190   0.29473   0.25569   0.00000  Uiso   1.00
C67    C     0.45821   0.19189   0.17636   0.00000  Uiso   1.00
C68    C     0.45662   0.17989   0.12671   0.00000  Uiso   1.00
C69    C     0.40225   0.20810   0.07751   0.00000  Uiso   1.00
H70    H     0.37958   0.26760   0.23620   0.00000  Uiso   1.00
H71    H     0.36042   0.17631   0.33023   0.00000  Uiso   1.00
H72    H     0.45054   0.34840   0.25037   0.00000  Uiso   1.00
H73    H     0.31356   0.28896   0.12813   0.00000  Uiso   1.00
H74    H     0.36164   0.05800   0.43428   0.00000  Uiso   1.00
H75    H     0.55165   0.42088   0.26586   0.00000  Uiso   1.00
H76    H     0.26281   0.29553   0.00809   0.00000  Uiso   1.00
H77    H     0.55254   0.13574   0.23450   0.00000  Uiso   1.00
H78    H     0.54287   0.03721   0.32844   0.00000  Uiso   1.00
H79    H     0.63299   0.20931   0.24857   0.00000  Uiso   1.00
H80    H     0.49602   0.14986   0.12634   0.00000  Uiso   1.00
H81    H     0.50973   0.94510   0.43283   0.00000  Uiso   1.00
H82    H     0.69974   0.30799   0.26440   0.00000  Uiso   1.00
H83    H     0.41090   0.18263   0.00664   0.00000  Uiso   1.00
O84    O     0.42621   0.93912   0.49540   0.00000  Uiso   1.00
O85    O     0.67550   0.41522   0.27442   0.00000  Uiso   1.00
O86    O     0.29655   0.25075   0.93624   0.00000  Uiso   1.00
N87    N     0.39781   0.04494   0.42104   0.00000  Uiso   1.00
N88    N     0.57547   0.38421   0.26358   0.00000  Uiso   1.00
N89    N     0.30543   0.26703   0.02259   0.00000  Uiso   1.00
N90    N     0.47749   0.98419   0.42026   0.00000  Uiso   1.00
N91    N     0.65515   0.32346   0.26280   0.00000  Uiso   1.00
N92    N     0.38512   0.20628   0.02181   0.00000  Uiso   1.00
C93    C     0.06861   0.49148   0.97807   0.00000  Uiso   1.00
C94    C     0.02631   0.47647   0.92981   0.00000  Uiso   1.00
C95    C     0.96618   0.51030   0.89221   0.00000  Uiso   1.00
C96    C     0.93517   0.48894   0.85103   0.00000  Uiso   1.00
C97    C     0.86519   0.47371   0.77664   0.00000  Uiso   1.00
C98    C     0.08318   0.43065   0.03752   0.00000  Uiso   1.00
C99    C     0.07087   0.42597   0.09050   0.00000  Uiso   1.00
C100   C     0.08775   0.36604   0.14000   0.00000  Uiso   1.00
C101   C     0.10611   0.27970   0.23285   0.00000  Uiso   1.00
C102   C     0.13186   0.50010   0.96257   0.00000  Uiso   1.00
C103   C     0.16051   0.55381   0.95254   0.00000  Uiso   1.00
C104   C     0.21838   0.55235   0.93894   0.00000  Uiso   1.00
C105   C     0.31233   0.57383   0.91541   0.00000  Uiso   1.00
C106   C     0.12046   0.39340   0.97178   0.00000  Uiso   1.00
C107   C     0.05447   0.42319   0.92640   0.00000  Uiso   1.00
C108   C     0.02354   0.40178   0.88526   0.00000  Uiso   1.00
C109   C     0.96338   0.43557   0.84761   0.00000  Uiso   1.00
C110   C     0.11134   0.37738   0.03411   0.00000  Uiso   1.00
C111   C     0.12824   0.31745   0.08355   0.00000  Uiso   1.00
C112   C     0.11596   0.31267   0.13658   0.00000  Uiso   1.00
C113   C     0.16003   0.44683   0.95915   0.00000  Uiso   1.00
C114   C     0.21787   0.44528   0.94558   0.00000  Uiso   1.00
C115   C     0.24659   0.49897   0.93552   0.00000  Uiso   1.00
H116   H     0.04668   0.53296   0.98073   0.00000  Uiso   1.00
H117   H     0.94440   0.55152   0.89487   0.00000  Uiso   1.00
H118   H     0.04908   0.46721   0.09313   0.00000  Uiso   1.00
H119   H     0.13870   0.59502   0.95518   0.00000  Uiso   1.00
H120   H     0.84340   0.54860   0.79819   0.00000  Uiso   1.00
H121   H     0.06416   0.37082   0.21623   0.00000  Uiso   1.00
H122   H     0.25313   0.64035   0.92535   0.00000  Uiso   1.00
H123   H     0.14239   0.35191   0.96913   0.00000  Uiso   1.00
H124   H     0.04535   0.36055   0.88263   0.00000  Uiso   1.00
H125   H     0.15004   0.27623   0.08089   0.00000  Uiso   1.00
H126   H     0.23965   0.40405   0.94294   0.00000  Uiso   1.00
H127   H     0.92534   0.39359   0.78826   0.00000  Uiso   1.00
H128   H     0.14611   0.21581   0.20630   0.00000  Uiso   1.00
H129   H     0.33507   0.48534   0.91542   0.00000  Uiso   1.00
O130   O     0.81881   0.48003   0.73655   0.00000  Uiso   1.00
O131   O     0.10845   0.24679   0.28500   0.00000  Uiso   1.00
O132   O     0.35636   0.60041   0.90337   0.00000  Uiso   1.00
N133   N     0.87601   0.51094   0.80772   0.00000  Uiso   1.00
N134   N     0.08240   0.34472   0.19856   0.00000  Uiso   1.00
N135   N     0.25908   0.59670   0.92662   0.00000  Uiso   1.00
N136   N     0.92010   0.42753   0.80237   0.00000  Uiso   1.00
N137   N     0.12649   0.26132   0.19321   0.00000  Uiso   1.00
N138   N     0.30317   0.51330   0.92128   0.00000  Uiso   1.00
C139   C     0.91003   0.46479   0.45412   0.00000  Uiso   1.00
C140   C     0.92794   0.42656   0.52297   0.00000  Uiso   1.00
C141   C     0.89687   0.43703   0.56099   0.00000  Uiso   1.00
C142   C     0.92058   0.39686   0.62268   0.00000  Uiso   1.00
C143   C     0.94031   0.34492   0.72611   0.00000  Uiso   1.00
C144   C     0.89892   0.41628   0.42852   0.00000  Uiso   1.00
C145   C     0.84346   0.41809   0.38712   0.00000  Uiso   1.00
C146   C     0.84276   0.36926   0.36929   0.00000  Uiso   1.00
C147   C     0.81746   0.30138   0.32605   0.00000  Uiso   1.00
C148   C     0.96995   0.48987   0.43963   0.00000  Uiso   1.00
C149   C     0.97422   0.55358   0.40754   0.00000  Uiso   1.00
C150   C     0.03331   0.56671   0.39905   0.00000  Uiso   1.00
C151   C     0.11830   0.61310   0.37305   0.00000  Uiso   1.00
C152   C     0.00739   0.37484   0.49608   0.00000  Uiso   1.00
C153   C     0.98081   0.37771   0.54576   0.00000  Uiso   1.00
C154   C     0.00458   0.33751   0.60741   0.00000  Uiso   1.00
C155   C     0.97356   0.34791   0.64551   0.00000  Uiso   1.00
C156   C     0.95180   0.36742   0.45131   0.00000  Uiso   1.00
C157   C     0.95117   0.31858   0.43353   0.00000  Uiso   1.00
C158   C     0.89573   0.32032   0.39212   0.00000  Uiso   1.00
C159   C     0.02283   0.44102   0.46241   0.00000  Uiso   1.00
C160   C     0.08193   0.45406   0.45396   0.00000  Uiso   1.00
C161   C     0.08628   0.51777   0.42188   0.00000  Uiso   1.00
H162   H     0.86887   0.50282   0.43638   0.00000  Uiso   1.00
H163   H     0.85595   0.47484   0.54334   0.00000  Uiso   1.00
H164   H     0.80255   0.45591   0.36949   0.00000  Uiso   1.00
H165   H     0.93329   0.59137   0.38991   0.00000  Uiso   1.00
H166   H     0.86493   0.42225   0.67196   0.00000  Uiso   1.00
H167   H     0.75235   0.38236   0.30538   0.00000  Uiso   1.00
H168   H     0.02803   0.66800   0.34845   0.00000  Uiso   1.00
H169   H     0.04856   0.33680   0.51382   0.00000  Uiso   1.00
H170   H     0.04550   0.29971   0.62503   0.00000  Uiso   1.00
H171   H     0.99210   0.28078   0.45118   0.00000  Uiso   1.00
H172   H     0.12284   0.41624   0.47160   0.00000  Uiso   1.00
H173   H     0.01878   0.28011   0.73827   0.00000  Uiso   1.00
H174   H     0.90620   0.24022   0.37168   0.00000  Uiso   1.00
H175   H     0.18188   0.52586   0.41475   0.00000  Uiso   1.00
O176   O     0.93659   0.32976   0.77687   0.00000  Uiso   1.00
O177   O     0.78890   0.27743   0.29592   0.00000  Uiso   1.00
O178   O     0.15058   0.65218   0.35243   0.00000  Uiso   1.00
N179   N     0.90157   0.39390   0.67231   0.00000  Uiso   1.00
N180   N     0.79631   0.35659   0.32958   0.00000  Uiso   1.00
N181   N     0.05404   0.62364   0.36983   0.00000  Uiso   1.00
N182   N     0.98435   0.31741   0.70799   0.00000  Uiso   1.00
N183   N     0.87909   0.28011   0.36525   0.00000  Uiso   1.00
N184   N     0.13683   0.54716   0.40551   0.00000  Uiso   1.00
C185   C     0.00314   0.56823   0.60146   0.00000  Uiso   1.00
C186   C     0.00811   0.60121   0.64289   0.00000  Uiso   1.00
C187   C     0.96950   0.59726   0.68031   0.00000  Uiso   1.00
C188   C     0.98171   0.63096   0.71471   0.00000  Uiso   1.00
C189   C     0.98198   0.67662   0.77951   0.00000  Uiso   1.00
C190   C     0.06883   0.52816   0.61993   0.00000  Uiso   1.00
C191   C     0.08128   0.46279   0.63805   0.00000  Uiso   1.00
C192   C     0.14460   0.43499   0.65312   0.00000  Uiso   1.00
C193   C     0.23914   0.36724   0.68224   0.00000  Uiso   1.00
C194   C     0.99440   0.62113   0.53782   0.00000  Uiso   1.00
C195   C     0.94427   0.63393   0.48689   0.00000  Uiso   1.00
C196   C     0.94493   0.68440   0.43282   0.00000  Uiso   1.00
C197   C     0.92390   0.76101   0.33444   0.00000  Uiso   1.00
C198   C     0.09348   0.63509   0.59599   0.00000  Uiso   1.00
C199   C     0.05718   0.63752   0.63992   0.00000  Uiso   1.00
C200   C     0.06945   0.67123   0.67426   0.00000  Uiso   1.00
C201   C     0.03087   0.66734   0.71174   0.00000  Uiso   1.00
C202   C     0.11790   0.56447   0.61696   0.00000  Uiso   1.00
C203   C     0.18123   0.53676   0.63200   0.00000  Uiso   1.00
C204   C     0.19376   0.47137   0.65015   0.00000  Uiso   1.00
C205   C     0.04347   0.65745   0.53485   0.00000  Uiso   1.00
C206   C     0.04422   0.70791   0.48084   0.00000  Uiso   1.00
C207   C     0.99409   0.72078   0.42984   0.00000  Uiso   1.00
H208   H     0.96494   0.53995   0.60377   0.00000  Uiso   1.00
H209   H     0.93153   0.56915   0.68260   0.00000  Uiso   1.00
H210   H     0.04329   0.43470   0.64034   0.00000  Uiso   1.00
H211   H     0.90630   0.60582   0.48920   0.00000  Uiso   1.00
H212   H     0.91615   0.61751   0.76871   0.00000  Uiso   1.00
H213   H     0.15179   0.33403   0.67958   0.00000  Uiso   1.00
H214   H     0.86292   0.69486   0.36087   0.00000  Uiso   1.00
H215   H     0.13169   0.66336   0.59368   0.00000  Uiso   1.00
H216   H     0.10743   0.69933   0.67196   0.00000  Uiso   1.00
H217   H     0.21919   0.56488   0.62970   0.00000  Uiso   1.00
H218   H     0.08220   0.73600   0.47856   0.00000  Uiso   1.00
H219   H     0.05892   0.72317   0.76007   0.00000  Uiso   1.00
H220   H     0.29456   0.43968   0.67094   0.00000  Uiso   1.00
H221   H     0.00569   0.80052   0.35224   0.00000  Uiso   1.00
O222   O     0.96858   0.69176   0.81608   0.00000  Uiso   1.00
O223   O     0.27773   0.31984   0.69913   0.00000  Uiso   1.00
O224   O     0.89874   0.79325   0.28100   0.00000  Uiso   1.00
N225   N     0.95307   0.63746   0.75592   0.00000  Uiso   1.00
N226   N     0.17338   0.37241   0.67260   0.00000  Uiso   1.00
N227   N     0.90332   0.70975   0.37464   0.00000  Uiso   1.00
N228   N     0.02989   0.69431   0.75127   0.00000  Uiso   1.00
N229   N     0.25020   0.42926   0.66795   0.00000  Uiso   1.00
N230   N     0.98014   0.76660   0.36999   0.00000  Uiso   1.00
C231   C     0.75749   0.66974   0.26320   0.00000  Uiso   1.00
C232   C     0.73758   0.62623   0.31844   0.00000  Uiso   1.00
C233   C     0.73583   0.63821   0.36751   0.00000  Uiso   1.00
C234   C     0.71625   0.59247   0.41352   0.00000  Uiso   1.00
C235   C     0.68792   0.53339   0.49973   0.00000  Uiso   1.00
C236   C     0.70139   0.68365   0.20806   0.00000  Uiso   1.00
C237   C     0.66923   0.74392   0.16432   0.00000  Uiso   1.00
C238   C     0.61919   0.74653   0.11740   0.00000  Uiso   1.00
C239   C     0.53471   0.77660   0.03223   0.00000  Uiso   1.00
C240   C     0.81179   0.62909   0.25929   0.00000  Uiso   1.00
C241   C     0.87244   0.64348   0.25861   0.00000  Uiso   1.00
C242   C     0.91534   0.60015   0.25482   0.00000  Uiso   1.00
C243   C     0.00226   0.54550   0.24919   0.00000  Uiso   1.00
C244   C     0.72582   0.56721   0.25764   0.00000  Uiso   1.00
C245   C     0.72038   0.57053   0.31542   0.00000  Uiso   1.00
C246   C     0.70079   0.52476   0.36136   0.00000  Uiso   1.00
C247   C     0.69902   0.53668   0.41049   0.00000  Uiso   1.00
C248   C     0.68419   0.62796   0.20504   0.00000  Uiso   1.00
C249   C     0.63419   0.63048   0.15817   0.00000  Uiso   1.00
C250   C     0.60195   0.69073   0.11438   0.00000  Uiso   1.00
C251   C     0.79459   0.57339   0.25627   0.00000  Uiso   1.00
C252   C     0.83740   0.53003   0.25247   0.00000  Uiso   1.00
C253   C     0.89810   0.54436   0.25179   0.00000  Uiso   1.00
H254   H     0.77088   0.71311   0.26555   0.00000  Uiso   1.00
H255   H     0.74915   0.68132   0.36983   0.00000  Uiso   1.00
H256   H     0.68256   0.78702   0.16667   0.00000  Uiso   1.00
H257   H     0.88573   0.68659   0.26095   0.00000  Uiso   1.00
H258   H     0.71744   0.62153   0.48410   0.00000  Uiso   1.00
H259   H     0.57705   0.84439   0.05571   0.00000  Uiso   1.00
H260   H     0.00548   0.63262   0.25453   0.00000  Uiso   1.00
H261   H     0.71242   0.52384   0.25529   0.00000  Uiso   1.00
H262   H     0.68748   0.48167   0.35901   0.00000  Uiso   1.00
H263   H     0.62089   0.58737   0.15585   0.00000  Uiso   1.00
H264   H     0.82407   0.48694   0.25013   0.00000  Uiso   1.00
H265   H     0.66739   0.45948   0.47532   0.00000  Uiso   1.00
H266   H     0.52699   0.68235   0.04693   0.00000  Uiso   1.00
H267   H     0.95543   0.47058   0.24575   0.00000  Uiso   1.00
O268   O     0.67704   0.51619   0.54812   0.00000  Uiso   1.00
O269   O     0.49286   0.80858   0.98608   0.00000  Uiso   1.00
O270   O     0.05496   0.53074   0.24693   0.00000  Uiso   1.00
N271   N     0.70909   0.58917   0.46780   0.00000  Uiso   1.00
N272   N     0.57783   0.79754   0.06729   0.00000  Uiso   1.00
N273   N     0.97838   0.59956   0.25315   0.00000  Uiso   1.00
N274   N     0.68216   0.50198   0.46308   0.00000  Uiso   1.00
N275   N     0.55090   0.71035   0.06257   0.00000  Uiso   1.00
N276   N     0.95144   0.51237   0.24843   0.00000  Uiso   1.00
C277   C     0.60036   0.29305   0.81869   0.00000  Uiso   1.00
C278   C     0.58326   0.31520   0.75029   0.00000  Uiso   1.00
C279   C     0.61121   0.35901   0.71071   0.00000  Uiso   1.00
C280   C     0.58890   0.37292   0.64976   0.00000  Uiso   1.00
C281   C     0.56976   0.41168   0.54667   0.00000  Uiso   1.00
C282   C     0.61832   0.22038   0.84767   0.00000  Uiso   1.00
C283   C     0.67574   0.18447   0.88996   0.00000  Uiso   1.00
C284   C     0.68292   0.11857   0.91099   0.00000  Uiso   1.00
C285   C     0.71819   0.01013   0.95912   0.00000  Uiso   1.00
C286   C     0.53828   0.30712   0.83219   0.00000  Uiso   1.00
C287   C     0.52840   0.34412   0.86149   0.00000  Uiso   1.00
C288   C     0.46821   0.35123   0.86950   0.00000  Uiso   1.00
C289   C     0.37920   0.37746   0.89359   0.00000  Uiso   1.00
C290   C     0.51103   0.23987   0.78084   0.00000  Uiso   1.00
C291   C     0.53474   0.28631   0.72973   0.00000  Uiso   1.00
C292   C     0.51238   0.30017   0.66882   0.00000  Uiso   1.00
C293   C     0.54029   0.34399   0.62916   0.00000  Uiso   1.00
C294   C     0.56980   0.19150   0.82711   0.00000  Uiso   1.00
C295   C     0.57690   0.12564   0.84808   0.00000  Uiso   1.00
C296   C     0.63431   0.08963   0.89040   0.00000  Uiso   1.00
C297   C     0.48976   0.27824   0.81163   0.00000  Uiso   1.00
C298   C     0.42957   0.28529   0.81960   0.00000  Uiso   1.00
C299   C     0.41960   0.32229   0.84890   0.00000  Uiso   1.00
H300   H     0.63814   0.31553   0.83470   0.00000  Uiso   1.00
H301   H     0.64876   0.38134   0.72664   0.00000  Uiso   1.00
H302   H     0.71327   0.20684   0.90587   0.00000  Uiso   1.00
H303   H     0.56596   0.36646   0.87739   0.00000  Uiso   1.00
H304   H     0.63917   0.44155   0.59776   0.00000  Uiso   1.00
H305   H     0.77518   0.07359   0.97570   0.00000  Uiso   1.00
H306   H     0.46455   0.41020   0.91565   0.00000  Uiso   1.00
H307   H     0.47325   0.21738   0.76483   0.00000  Uiso   1.00
H308   H     0.47483   0.27781   0.65293   0.00000  Uiso   1.00
H309   H     0.53934   0.10330   0.83216   0.00000  Uiso   1.00
H310   H     0.39203   0.26293   0.80368   0.00000  Uiso   1.00
H311   H     0.49800   0.35751   0.53793   0.00000  Uiso   1.00
H312   H     0.63401   0.98955   0.91588   0.00000  Uiso   1.00
H313   H     0.32338   0.32616   0.85582   0.00000  Uiso   1.00
O314   O     0.57261   0.44104   0.49549   0.00000  Uiso   1.00
O315   O     0.75105   0.95829   0.99135   0.00000  Uiso   1.00
O316   O     0.34351   0.39991   0.91256   0.00000  Uiso   1.00
N317   N     0.60572   0.41349   0.59903   0.00000  Uiso   1.00
N318   N     0.73288   0.06947   0.95238   0.00000  Uiso   1.00
N319   N     0.44247   0.38415   0.89625   0.00000  Uiso   1.00
N320   N     0.52975   0.36827   0.56684   0.00000  Uiso   1.00
N321   N     0.65692   0.02425   0.92019   0.00000  Uiso   1.00
N322   N     0.36651   0.33893   0.86406   0.00000  Uiso   1.00
C323   C     0.48908   0.56804   0.64764   0.00000  Uiso   1.00
C324   C     0.49211   0.63820   0.61092   0.00000  Uiso   1.00
C325   C     0.54232   0.66115   0.58824   0.00000  Uiso   1.00
C326   C     0.53593   0.72698   0.55579   0.00000  Uiso   1.00
C327   C     0.54893   0.82963   0.50018   0.00000  Uiso   1.00
C328   C     0.42813   0.55546   0.61331   0.00000  Uiso   1.00
C329   C     0.42455   0.50883   0.59264   0.00000  Uiso   1.00
C330   C     0.36429   0.50500   0.56220   0.00000  Uiso   1.00
C331   C     0.27796   0.47915   0.51034   0.00000  Uiso   1.00
C332   C     0.47804   0.56260   0.70682   0.00000  Uiso   1.00
C333   C     0.51641   0.52197   0.76479   0.00000  Uiso   1.00
C334   C     0.49817   0.52414   0.81308   0.00000  Uiso   1.00
C335   C     0.48933   0.50940   0.90641   0.00000  Uiso   1.00
C336   C     0.38844   0.64413   0.63034   0.00000  Uiso   1.00
C337   C     0.43745   0.67953   0.60153   0.00000  Uiso   1.00
C338   C     0.43098   0.74534   0.56910   0.00000  Uiso   1.00
C339   C     0.48117   0.76838   0.54637   0.00000  Uiso   1.00
C340   C     0.37347   0.59678   0.60391   0.00000  Uiso   1.00
C341   C     0.31320   0.59301   0.57350   0.00000  Uiso   1.00
C342   C     0.30953   0.54640   0.55279   0.00000  Uiso   1.00
C343   C     0.42338   0.60393   0.69743   0.00000  Uiso   1.00
C344   C     0.40507   0.60616   0.74564   0.00000  Uiso   1.00
C345   C     0.44341   0.56555   0.80367   0.00000  Uiso   1.00
H346   H     0.53164   0.53586   0.65496   0.00000  Uiso   1.00
H347   H     0.58461   0.62915   0.59552   0.00000  Uiso   1.00
H348   H     0.46686   0.47685   0.59993   0.00000  Uiso   1.00
H349   H     0.55871   0.49000   0.77204   0.00000  Uiso   1.00
H350   H     0.61923   0.75081   0.52546   0.00000  Uiso   1.00
H351   H     0.37093   0.42966   0.53477   0.00000  Uiso   1.00
H352   H     0.56462   0.45737   0.89771   0.00000  Uiso   1.00
H353   H     0.34589   0.67630   0.62302   0.00000  Uiso   1.00
H354   H     0.38867   0.77730   0.56183   0.00000  Uiso   1.00
H355   H     0.27091   0.62500   0.56624   0.00000  Uiso   1.00
H356   H     0.36277   0.63815   0.73835   0.00000  Uiso   1.00
H357   H     0.46019   0.87105   0.49811   0.00000  Uiso   1.00
H358   H     0.21189   0.54990   0.50743   0.00000  Uiso   1.00
H359   H     0.40558   0.57762   0.87037   0.00000  Uiso   1.00
O360   O     0.57120   0.87484   0.47209   0.00000  Uiso   1.00
O361   O     0.24544   0.45349   0.48432   0.00000  Uiso   1.00
O362   O     0.49956   0.48986   0.96049   0.00000  Uiso   1.00
N363   N     0.57593   0.76525   0.52743   0.00000  Uiso   1.00
N364   N     0.34379   0.46500   0.53613   0.00000  Uiso   1.00
N365   N     0.52486   0.49090   0.87545   0.00000  Uiso   1.00
N366   N     0.49036   0.82995   0.51272   0.00000  Uiso   1.00
N367   N     0.25822   0.52970   0.52142   0.00000  Uiso   1.00
N368   N     0.43929   0.55560   0.86074   0.00000  Uiso   1.00
C369   C     0.68151   0.44091   0.98193   0.00000  Uiso   1.00
C370   C     0.69119   0.47134   0.91882   0.00000  Uiso   1.00
C371   C     0.66077   0.53113   0.87278   0.00000  Uiso   1.00
C372   C     0.67615   0.55035   0.81833   0.00000  Uiso   1.00
C373   C     0.68446   0.60358   0.72157   0.00000  Uiso   1.00
C374   C     0.74761   0.42502   0.02667   0.00000  Uiso   1.00
C375   C     0.76462   0.44586   0.07132   0.00000  Uiso   1.00
C376   C     0.82750   0.42608   0.10766   0.00000  Uiso   1.00
C377   C     0.92340   0.40737   0.17837   0.00000  Uiso   1.00
C378   C     0.66154   0.37688   0.99015   0.00000  Uiso   1.00
C379   C     0.60619   0.35723   0.00411   0.00000  Uiso   1.00
C380   C     0.59661   0.29691   0.00972   0.00000  Uiso   1.00
C381   C     0.55888   0.20345   0.02373   0.00000  Uiso   1.00
C382   C     0.76292   0.36871   0.96711   0.00000  Uiso   1.00
C383   C     0.73541   0.43212   0.91077   0.00000  Uiso   1.00
C384   C     0.75084   0.45125   0.85638   0.00000  Uiso   1.00
C385   C     0.72044   0.51106   0.81026   0.00000  Uiso   1.00
C386   C     0.79183   0.38581   0.01862   0.00000  Uiso   1.00
C387   C     0.85469   0.36599   0.05492   0.00000  Uiso   1.00
C388   C     0.87180   0.38679   0.09960   0.00000  Uiso   1.00
C389   C     0.70576   0.33766   0.98210   0.00000  Uiso   1.00
C390   C     0.69626   0.27736   0.98770   0.00000  Uiso   1.00
C391   C     0.64091   0.25762   0.00166   0.00000  Uiso   1.00
H392   H     0.64709   0.47144   0.98820   0.00000  Uiso   1.00
H393   H     0.62655   0.56147   0.87903   0.00000  Uiso   1.00
H394   H     0.73039   0.47621   0.07754   0.00000  Uiso   1.00
H395   H     0.57199   0.38759   0.01033   0.00000  Uiso   1.00
H396   H     0.62330   0.64400   0.75444   0.00000  Uiso   1.00
H397   H     0.84224   0.46421   0.17303   0.00000  Uiso   1.00
H398   H     0.50822   0.27734   0.03132   0.00000  Uiso   1.00
H399   H     0.79735   0.33817   0.96084   0.00000  Uiso   1.00
H400   H     0.78506   0.42090   0.85016   0.00000  Uiso   1.00
H401   H     0.88890   0.33564   0.04868   0.00000  Uiso   1.00
H402   H     0.73049   0.24702   0.98147   0.00000  Uiso   1.00
H403   H     0.75195   0.52991   0.73101   0.00000  Uiso   1.00
H404   H     0.97089   0.35011   0.14960   0.00000  Uiso   1.00
H405   H     0.63687   0.16325   0.00789   0.00000  Uiso   1.00
O406   O     0.67684   0.64378   0.67042   0.00000  Uiso   1.00
O407   O     0.96408   0.40789   0.21959   0.00000  Uiso   1.00
O408   O     0.52585   0.16273   0.03367   0.00000  Uiso   1.00
N409   N     0.65526   0.60579   0.76411   0.00000  Uiso   1.00
N410   N     0.85996   0.43770   0.15546   0.00000  Uiso   1.00
N411   N     0.54768   0.26299   0.02299   0.00000  Uiso   1.00
N412   N     0.72448   0.54440   0.75151   0.00000  Uiso   1.00
N413   N     0.92918   0.37631   0.14285   0.00000  Uiso   1.00
N414   N     0.61690   0.20160   0.01039   0.00000  Uiso   1.00
C415   C     0.16488   0.00112   0.14643   0.00000  Uiso   1.00
C416   C     0.13064   0.05245   0.08253   0.00000  Uiso   1.00
C417   C     0.15373   0.06965   0.03231   0.00000  Uiso   1.00
C418   C     0.11519   0.11774   0.97785   0.00000  Uiso   1.00
C419   C     0.07109   0.19294   0.87925   0.00000  Uiso   1.00
C420   C     0.16997   0.03417   0.18781   0.00000  Uiso   1.00
C421   C     0.22613   0.03599   0.22611   0.00000  Uiso   1.00
C422   C     0.22069   0.06868   0.26029   0.00000  Uiso   1.00
C423   C     0.23764   0.11545   0.32517   0.00000  Uiso   1.00
C424   C     0.11898   0.95431   0.16389   0.00000  Uiso   1.00
C425   C     0.13227   0.88898   0.18209   0.00000  Uiso   1.00
C426   C     0.08390   0.85443   0.19614   0.00000  Uiso   1.00
C427   C     0.02168   0.77721   0.22387   0.00000  Uiso   1.00
C428   C     0.05536   0.05593   0.13903   0.00000  Uiso   1.00
C429   C     0.07116   0.08222   0.07851   0.00000  Uiso   1.00
C430   C     0.03257   0.13029   0.02412   0.00000  Uiso   1.00
C431   C     0.05560   0.14756   0.97382   0.00000  Uiso   1.00
C432   C     0.11049   0.06394   0.18379   0.00000  Uiso   1.00
C433   C     0.10496   0.09663   0.21792   0.00000  Uiso   1.00
C434   C     0.16110   0.09850   0.25626   0.00000  Uiso   1.00
C435   C     0.05949   0.98408   0.15986   0.00000  Uiso   1.00
C436   C     0.01110   0.94962   0.17390   0.00000  Uiso   1.00
C437   C     0.02431   0.88425   0.19211   0.00000  Uiso   1.00
H438   H     0.21119   0.97794   0.14956   0.00000  Uiso   1.00
H439   H     0.19977   0.04661   0.03544   0.00000  Uiso   1.00
H440   H     0.27215   0.01294   0.22922   0.00000  Uiso   1.00
H441   H     0.17830   0.86596   0.18520   0.00000  Uiso   1.00
H442   H     0.16089   0.13588   0.90714   0.00000  Uiso   1.00
H443   H     0.31351   0.06487   0.31575   0.00000  Uiso   1.00
H444   H     0.11561   0.75493   0.22293   0.00000  Uiso   1.00
H445   H     0.00905   0.07911   0.13590   0.00000  Uiso   1.00
H446   H     0.98654   0.15332   0.02102   0.00000  Uiso   1.00
H447   H     0.05892   0.11966   0.21480   0.00000  Uiso   1.00
H448   H     0.96507   0.97267   0.17078   0.00000  Uiso   1.00
H449   H     0.98782   0.22249   0.89544   0.00000  Uiso   1.00
H450   H     0.14044   0.15148   0.30405   0.00000  Uiso   1.00
H451   H     0.94254   0.84154   0.21122   0.00000  Uiso   1.00
O452   O     0.06321   0.22619   0.82597   0.00000  Uiso   1.00
O453   O     0.26343   0.13303   0.36206   0.00000  Uiso   1.00
O454   O     0.00379   0.72639   0.24027   0.00000  Uiso   1.00
N455   N     0.12324   0.14607   0.92015   0.00000  Uiso   1.00
N456   N     0.26593   0.07969   0.30217   0.00000  Uiso   1.00
N457   N     0.08092   0.78992   0.21540   0.00000  Uiso   1.00
N458   N     0.03012   0.19267   0.91385   0.00000  Uiso   1.00
N459   N     0.17281   0.12630   0.29587   0.00000  Uiso   1.00
N460   N     0.98779   0.83652   0.20910   0.00000  Uiso   1.00
C461   C     0.11196   0.83127   0.03780   0.00000  Uiso   1.00
C462   C     0.09678   0.81327   0.98519   0.00000  Uiso   1.00
C463   C     0.12797   0.82825   0.94043   0.00000  Uiso   1.00
C464   C     0.10694   0.80746   0.89624   0.00000  Uiso   1.00
C465   C     0.09102   0.78478   0.81445   0.00000  Uiso   1.00
C466   C     0.04978   0.86832   0.03345   0.00000  Uiso   1.00
C467   C     0.04146   0.92959   0.02927   0.00000  Uiso   1.00
C468   C     0.98087   0.95513   0.02571   0.00000  Uiso   1.00
C469   C     0.89199   0.01790   0.01888   0.00000  Uiso   1.00
C470   C     0.12571   0.76867   0.09550   0.00000  Uiso   1.00
C471   C     0.18123   0.74616   0.14351   0.00000  Uiso   1.00
C472   C     0.18456   0.68780   0.19220   0.00000  Uiso   1.00
C473   C     0.21357   0.59585   0.28173   0.00000  Uiso   1.00
C474   C     0.01915   0.76769   0.03890   0.00000  Uiso   1.00
C475   C     0.04637   0.77873   0.98579   0.00000  Uiso   1.00
C476   C     0.02529   0.75790   0.94166   0.00000  Uiso   1.00
C477   C     0.05645   0.77285   0.89684   0.00000  Uiso   1.00
C478   C     0.99937   0.83378   0.03405   0.00000  Uiso   1.00
C479   C     0.93878   0.85923   0.03049   0.00000  Uiso   1.00
C480   C     0.93037   0.92053   0.02631   0.00000  Uiso   1.00
C481   C     0.07530   0.73413   0.09610   0.00000  Uiso   1.00
C482   C     0.07855   0.67580   0.14473   0.00000  Uiso   1.00
C483   C     0.13406   0.65320   0.19281   0.00000  Uiso   1.00
H484   H     0.15120   0.85817   0.03733   0.00000  Uiso   1.00
H485   H     0.16698   0.85499   0.93998   0.00000  Uiso   1.00
H486   H     0.08048   0.95630   0.02881   0.00000  Uiso   1.00
H487   H     0.22022   0.77290   0.14303   0.00000  Uiso   1.00
H488   H     0.16222   0.83625   0.83231   0.00000  Uiso   1.00
H489   H     0.97984   0.04987   0.01963   0.00000  Uiso   1.00
H490   H     0.27452   0.66313   0.26049   0.00000  Uiso   1.00
H491   H     0.97990   0.74080   0.03937   0.00000  Uiso   1.00
H492   H     0.98628   0.73117   0.94214   0.00000  Uiso   1.00
H493   H     0.89979   0.83249   0.03096   0.00000  Uiso   1.00
H494   H     0.03953   0.64909   0.14518   0.00000  Uiso   1.00
H495   H     0.01556   0.73576   0.83406   0.00000  Uiso   1.00
H496   H     0.83318   0.94938   0.02138   0.00000  Uiso   1.00
H497   H     0.12786   0.56264   0.26223   0.00000  Uiso   1.00
O498   O     0.09616   0.78182   0.76917   0.00000  Uiso   1.00
O499   O     0.85690   0.06207   0.01494   0.00000  Uiso   1.00
O500   O     0.24351   0.55467   0.33094   0.00000  Uiso   1.00
N501   N     0.12684   0.81391   0.84607   0.00000  Uiso   1.00
N502   N     0.95632   0.01363   0.02119   0.00000  Uiso   1.00
N503   N     0.23182   0.65207   0.24638   0.00000  Uiso   1.00
N504   N     0.04792   0.75984   0.84701   0.00000  Uiso   1.00
N505   N     0.87741   0.95956   0.02213   0.00000  Uiso   1.00
N506   N     0.15290   0.59800   0.24732   0.00000  Uiso   1.00
C507   C     0.37904   0.91006   0.27575   0.00000  Uiso   1.00
C508   C     0.44012   0.86027   0.30557   0.00000  Uiso   1.00
C509   C     0.49605   0.86349   0.34317   0.00000  Uiso   1.00
C510   C     0.54661   0.81313   0.36592   0.00000  Uiso   1.00
C511   C     0.64225   0.74369   0.41440   0.00000  Uiso   1.00
C512   C     0.36435   0.93031   0.20776   0.00000  Uiso   1.00
C513   C     0.35657   0.99243   0.16312   0.00000  Uiso   1.00
C514   C     0.34335   0.00102   0.10353   0.00000  Uiso   1.00
C515   C     0.32131   0.04033   0.00014   0.00000  Uiso   1.00
C516   C     0.32604   0.87438   0.29578   0.00000  Uiso   1.00
C517   C     0.28603   0.88948   0.32513   0.00000  Uiso   1.00
C518   C     0.24053   0.85100   0.33963   0.00000  Uiso   1.00
C519   C     0.15901   0.80348   0.37291   0.00000  Uiso   1.00
C520   C     0.36937   0.81488   0.24930   0.00000  Uiso   1.00
C521   C     0.43486   0.80858   0.29120   0.00000  Uiso   1.00
C522   C     0.48535   0.75819   0.31391   0.00000  Uiso   1.00
C523   C     0.54135   0.76134   0.35154   0.00000  Uiso   1.00
C524   C     0.35910   0.87862   0.19339   0.00000  Uiso   1.00
C525   C     0.34587   0.88712   0.13386   0.00000  Uiso   1.00
C526   C     0.33808   0.94923   0.08914   0.00000  Uiso   1.00
C527   C     0.32078   0.82269   0.28141   0.00000  Uiso   1.00
C528   C     0.27533   0.78418   0.29587   0.00000  Uiso   1.00
C529   C     0.23527   0.79921   0.32524   0.00000  Uiso   1.00
H530   H     0.38313   0.95031   0.28693   0.00000  Uiso   1.00
H531   H     0.50010   0.90351   0.35427   0.00000  Uiso   1.00
H532   H     0.36064   0.03242   0.17425   0.00000  Uiso   1.00
H533   H     0.29011   0.92949   0.33624   0.00000  Uiso   1.00
H534   H     0.62747   0.82884   0.42259   0.00000  Uiso   1.00
H535   H     0.33338   0.10066   0.04299   0.00000  Uiso   1.00
H536   H     0.18466   0.88361   0.38458   0.00000  Uiso   1.00
H537   H     0.36528   0.77464   0.23811   0.00000  Uiso   1.00
H538   H     0.48127   0.71819   0.30278   0.00000  Uiso   1.00
H539   H     0.34181   0.84710   0.12276   0.00000  Uiso   1.00
H540   H     0.27128   0.74417   0.28475   0.00000  Uiso   1.00
H541   H     0.61219   0.67843   0.38079   0.00000  Uiso   1.00
H542   H     0.31810   0.95025   0.00120   0.00000  Uiso   1.00
H543   H     0.16938   0.73320   0.34278   0.00000  Uiso   1.00
O544   O     0.69646   0.71968   0.44510   0.00000  Uiso   1.00
O545   O     0.31062   0.07630   0.94708   0.00000  Uiso   1.00
O546   O     0.11550   0.79154   0.39524   0.00000  Uiso   1.00
N547   N     0.60795   0.80118   0.40388   0.00000  Uiso   1.00
N548   N     0.33301   0.05531   0.04899   0.00000  Uiso   1.00
N549   N     0.19395   0.85240   0.36833   0.00000  Uiso   1.00
N550   N     0.59973   0.72024   0.38140   0.00000  Uiso   1.00
N551   N     0.32479   0.97437   0.02650   0.00000  Uiso   1.00
N552   N     0.18573   0.77147   0.34584   0.00000  Uiso   1.00
