data_job_03973
_audit_creation_date              2018-12-19
_audit_creation_method            'Materials Studio'
_symmetry_space_group_name_H-M    'P1'
_symmetry_Int_Tables_number       1
_symmetry_cell_setting            triclinic
loop_
_symmetry_equiv_pos_as_xyz
  x,y,z
_cell_length_a                    17.9824
_cell_length_b                    17.9824
_cell_length_c                    15.6278
_cell_angle_alpha                 90.0000
_cell_angle_beta                  90.0000
_cell_angle_gamma                 90.0000
loop_
_atom_site_label
_atom_site_type_symbol
_atom_site_fract_x
_atom_site_fract_y
_atom_site_fract_z
_atom_site_U_iso_or_equiv
_atom_site_adp_type
_atom_site_occupancy
C1     C     0.12060   0.64070   0.73675   0.00000  Uiso   1.00
C2     C     0.16945   0.60920   0.66569   0.00000  Uiso   1.00
C3     C     0.14540   0.56446   0.59884   0.00000  Uiso   1.00
C4     C     0.19873   0.54135   0.54036   0.00000  Uiso   1.00
C5     C     0.26323   0.48923   0.42881   0.00000  Uiso   1.00
C6     C     0.15517   0.61451   0.82060   0.00000  Uiso   1.00
C7     C     0.11911   0.57424   0.88399   0.00000  Uiso   1.00
C8     C     0.16043   0.55562   0.95592   0.00000  Uiso   1.00
C9     C     0.20274   0.51179   0.08489   0.00000  Uiso   1.00
C10    C     0.13140   0.72478   0.73426   0.00000  Uiso   1.00
C11    C     0.07535   0.77723   0.72508   0.00000  Uiso   1.00
C12    C     0.09665   0.85144   0.72433   0.00000  Uiso   1.00
C13    C     0.10206   0.97882   0.71925   0.00000  Uiso   1.00
C14    C     0.25809   0.67922   0.75178   0.00000  Uiso   1.00
C15    C     0.24412   0.63013   0.67386   0.00000  Uiso   1.00
C16    C     0.29751   0.60709   0.61547   0.00000  Uiso   1.00
C17    C     0.27354   0.56232   0.54854   0.00000  Uiso   1.00
C18    C     0.22984   0.63543   0.82877   0.00000  Uiso   1.00
C19    C     0.27122   0.61687   0.90062   0.00000  Uiso   1.00
C20    C     0.23524   0.57658   0.96410   0.00000  Uiso   1.00
C21    C     0.20608   0.74571   0.74242   0.00000  Uiso   1.00
C22    C     0.22747   0.81985   0.74170   0.00000  Uiso   1.00
C23    C     0.17146   0.87241   0.73252   0.00000  Uiso   1.00
H24    H     0.06246   0.62441   0.73040   0.00000  Uiso   1.00
H25    H     0.08760   0.54827   0.59255   0.00000  Uiso   1.00
H26    H     0.06132   0.55806   0.87765   0.00000  Uiso   1.00
H27    H     0.01757   0.76102   0.71876   0.00000  Uiso   1.00
H28    H     0.14841   0.47307   0.44333   0.00000  Uiso   1.00
H29    H     0.09299   0.49374   0.04451   0.00000  Uiso   1.00
H30    H     0.00073   0.92170   0.70946   0.00000  Uiso   1.00
H31    H     0.31623   0.69552   0.75814   0.00000  Uiso   1.00
H32    H     0.35530   0.62329   0.62180   0.00000  Uiso   1.00
H33    H     0.32901   0.63307   0.90692   0.00000  Uiso   1.00
H34    H     0.28526   0.83603   0.74802   0.00000  Uiso   1.00
H35    H     0.36568   0.53395   0.46708   0.00000  Uiso   1.00
H36    H     0.31026   0.55462   0.06827   0.00000  Uiso   1.00
H37    H     0.21800   0.98258   0.73321   0.00000  Uiso   1.00
O38    O     0.27817   0.45470   0.36504   0.00000  Uiso   1.00
O39    O     0.20545   0.48182   0.15377   0.00000  Uiso   1.00
O40    O     0.08441   0.04330   0.71418   0.00000  Uiso   1.00
N41    N     0.19418   0.49733   0.46762   0.00000  Uiso   1.00
N42    N     0.14237   0.51664   0.02968   0.00000  Uiso   1.00
N43    N     0.05611   0.91675   0.71646   0.00000  Uiso   1.00
N44    N     0.31109   0.53009   0.48040   0.00000  Uiso   1.00
N45    N     0.25928   0.54940   0.04246   0.00000  Uiso   1.00
N46    N     0.17302   0.94951   0.72924   0.00000  Uiso   1.00
C47    C     0.62060   0.14070   0.23675   0.00000  Uiso   1.00
C48    C     0.66945   0.10920   0.16569   0.00000  Uiso   1.00
C49    C     0.64540   0.06446   0.09884   0.00000  Uiso   1.00
C50    C     0.69873   0.04135   0.04036   0.00000  Uiso   1.00
C51    C     0.76323   0.98923   0.92881   0.00000  Uiso   1.00
C52    C     0.65517   0.11451   0.32060   0.00000  Uiso   1.00
C53    C     0.61911   0.07424   0.38399   0.00000  Uiso   1.00
C54    C     0.66043   0.05562   0.45592   0.00000  Uiso   1.00
C55    C     0.70274   0.01179   0.58489   0.00000  Uiso   1.00
C56    C     0.63140   0.22478   0.23426   0.00000  Uiso   1.00
C57    C     0.57535   0.27723   0.22508   0.00000  Uiso   1.00
C58    C     0.59665   0.35144   0.22433   0.00000  Uiso   1.00
C59    C     0.60206   0.47882   0.21925   0.00000  Uiso   1.00
C60    C     0.75809   0.17922   0.25178   0.00000  Uiso   1.00
C61    C     0.74412   0.13013   0.17386   0.00000  Uiso   1.00
C62    C     0.79751   0.10709   0.11547   0.00000  Uiso   1.00
C63    C     0.77354   0.06232   0.04854   0.00000  Uiso   1.00
C64    C     0.72984   0.13543   0.32877   0.00000  Uiso   1.00
C65    C     0.77122   0.11687   0.40062   0.00000  Uiso   1.00
C66    C     0.73524   0.07658   0.46410   0.00000  Uiso   1.00
C67    C     0.70608   0.24571   0.24242   0.00000  Uiso   1.00
C68    C     0.72747   0.31985   0.24170   0.00000  Uiso   1.00
C69    C     0.67146   0.37241   0.23252   0.00000  Uiso   1.00
H70    H     0.56246   0.12441   0.23040   0.00000  Uiso   1.00
H71    H     0.58760   0.04827   0.09255   0.00000  Uiso   1.00
H72    H     0.56132   0.05806   0.37765   0.00000  Uiso   1.00
H73    H     0.51757   0.26102   0.21876   0.00000  Uiso   1.00
H74    H     0.64841   0.97307   0.94333   0.00000  Uiso   1.00
H75    H     0.59299   0.99374   0.54451   0.00000  Uiso   1.00
H76    H     0.50073   0.42170   0.20946   0.00000  Uiso   1.00
H77    H     0.81623   0.19552   0.25814   0.00000  Uiso   1.00
H78    H     0.85530   0.12329   0.12180   0.00000  Uiso   1.00
H79    H     0.82901   0.13307   0.40692   0.00000  Uiso   1.00
H80    H     0.78526   0.33603   0.24802   0.00000  Uiso   1.00
H81    H     0.86568   0.03395   0.96708   0.00000  Uiso   1.00
H82    H     0.81026   0.05462   0.56827   0.00000  Uiso   1.00
H83    H     0.71800   0.48258   0.23321   0.00000  Uiso   1.00
O84    O     0.77817   0.95470   0.86504   0.00000  Uiso   1.00
O85    O     0.70545   0.98182   0.65377   0.00000  Uiso   1.00
O86    O     0.58441   0.54330   0.21418   0.00000  Uiso   1.00
N87    N     0.69418   0.99733   0.96762   0.00000  Uiso   1.00
N88    N     0.64237   0.01664   0.52968   0.00000  Uiso   1.00
N89    N     0.55611   0.41675   0.21646   0.00000  Uiso   1.00
N90    N     0.81109   0.03009   0.98040   0.00000  Uiso   1.00
N91    N     0.75928   0.04940   0.54246   0.00000  Uiso   1.00
N92    N     0.67302   0.44951   0.22924   0.00000  Uiso   1.00
C93    C     0.87940   0.35930   0.73675   0.00000  Uiso   1.00
C94    C     0.83055   0.39080   0.66569   0.00000  Uiso   1.00
C95    C     0.85460   0.43554   0.59884   0.00000  Uiso   1.00
C96    C     0.80127   0.45865   0.54036   0.00000  Uiso   1.00
C97    C     0.73677   0.51077   0.42881   0.00000  Uiso   1.00
C98    C     0.84483   0.38549   0.82060   0.00000  Uiso   1.00
C99    C     0.88089   0.42576   0.88399   0.00000  Uiso   1.00
C100   C     0.83957   0.44438   0.95592   0.00000  Uiso   1.00
C101   C     0.79726   0.48821   0.08489   0.00000  Uiso   1.00
C102   C     0.86860   0.27522   0.73426   0.00000  Uiso   1.00
C103   C     0.92465   0.22277   0.72508   0.00000  Uiso   1.00
C104   C     0.90335   0.14856   0.72433   0.00000  Uiso   1.00
C105   C     0.89794   0.02118   0.71925   0.00000  Uiso   1.00
C106   C     0.74191   0.32078   0.75178   0.00000  Uiso   1.00
C107   C     0.75588   0.36987   0.67386   0.00000  Uiso   1.00
C108   C     0.70249   0.39291   0.61547   0.00000  Uiso   1.00
C109   C     0.72646   0.43768   0.54854   0.00000  Uiso   1.00
C110   C     0.77016   0.36457   0.82877   0.00000  Uiso   1.00
C111   C     0.72878   0.38313   0.90062   0.00000  Uiso   1.00
C112   C     0.76476   0.42342   0.96410   0.00000  Uiso   1.00
C113   C     0.79392   0.25429   0.74242   0.00000  Uiso   1.00
C114   C     0.77253   0.18015   0.74170   0.00000  Uiso   1.00
C115   C     0.82854   0.12759   0.73252   0.00000  Uiso   1.00
H116   H     0.93754   0.37559   0.73040   0.00000  Uiso   1.00
H117   H     0.91240   0.45173   0.59255   0.00000  Uiso   1.00
H118   H     0.93868   0.44194   0.87765   0.00000  Uiso   1.00
H119   H     0.98243   0.23898   0.71876   0.00000  Uiso   1.00
H120   H     0.85159   0.52693   0.44333   0.00000  Uiso   1.00
H121   H     0.90701   0.50626   0.04451   0.00000  Uiso   1.00
H122   H     0.99927   0.07830   0.70946   0.00000  Uiso   1.00
H123   H     0.68377   0.30448   0.75814   0.00000  Uiso   1.00
H124   H     0.64470   0.37671   0.62180   0.00000  Uiso   1.00
H125   H     0.67099   0.36693   0.90692   0.00000  Uiso   1.00
H126   H     0.71474   0.16397   0.74802   0.00000  Uiso   1.00
H127   H     0.63432   0.46605   0.46708   0.00000  Uiso   1.00
H128   H     0.68974   0.44538   0.06827   0.00000  Uiso   1.00
H129   H     0.78200   0.01742   0.73321   0.00000  Uiso   1.00
O130   O     0.72183   0.54530   0.36504   0.00000  Uiso   1.00
O131   O     0.79455   0.51818   0.15377   0.00000  Uiso   1.00
O132   O     0.91559   0.95670   0.71418   0.00000  Uiso   1.00
N133   N     0.80582   0.50267   0.46762   0.00000  Uiso   1.00
N134   N     0.85763   0.48336   0.02968   0.00000  Uiso   1.00
N135   N     0.94389   0.08325   0.71646   0.00000  Uiso   1.00
N136   N     0.68891   0.46991   0.48040   0.00000  Uiso   1.00
N137   N     0.74072   0.45060   0.04246   0.00000  Uiso   1.00
N138   N     0.82698   0.05049   0.72924   0.00000  Uiso   1.00
C139   C     0.37940   0.85930   0.23675   0.00000  Uiso   1.00
C140   C     0.33055   0.89080   0.16569   0.00000  Uiso   1.00
C141   C     0.35460   0.93554   0.09884   0.00000  Uiso   1.00
C142   C     0.30127   0.95865   0.04036   0.00000  Uiso   1.00
C143   C     0.23677   0.01077   0.92881   0.00000  Uiso   1.00
C144   C     0.34483   0.88549   0.32060   0.00000  Uiso   1.00
C145   C     0.38089   0.92576   0.38399   0.00000  Uiso   1.00
C146   C     0.33957   0.94438   0.45592   0.00000  Uiso   1.00
C147   C     0.29726   0.98821   0.58489   0.00000  Uiso   1.00
C148   C     0.36860   0.77522   0.23426   0.00000  Uiso   1.00
C149   C     0.42465   0.72277   0.22508   0.00000  Uiso   1.00
C150   C     0.40335   0.64856   0.22433   0.00000  Uiso   1.00
C151   C     0.39794   0.52118   0.21925   0.00000  Uiso   1.00
C152   C     0.24191   0.82078   0.25178   0.00000  Uiso   1.00
C153   C     0.25588   0.86987   0.17386   0.00000  Uiso   1.00
C154   C     0.20249   0.89291   0.11547   0.00000  Uiso   1.00
C155   C     0.22646   0.93768   0.04854   0.00000  Uiso   1.00
C156   C     0.27016   0.86457   0.32877   0.00000  Uiso   1.00
C157   C     0.22878   0.88313   0.40062   0.00000  Uiso   1.00
C158   C     0.26476   0.92342   0.46410   0.00000  Uiso   1.00
C159   C     0.29392   0.75429   0.24242   0.00000  Uiso   1.00
C160   C     0.27253   0.68015   0.24170   0.00000  Uiso   1.00
C161   C     0.32854   0.62759   0.23252   0.00000  Uiso   1.00
H162   H     0.43754   0.87559   0.23040   0.00000  Uiso   1.00
H163   H     0.41240   0.95173   0.09255   0.00000  Uiso   1.00
H164   H     0.43868   0.94194   0.37765   0.00000  Uiso   1.00
H165   H     0.48243   0.73898   0.21876   0.00000  Uiso   1.00
H166   H     0.35159   0.02693   0.94333   0.00000  Uiso   1.00
H167   H     0.40701   0.00626   0.54451   0.00000  Uiso   1.00
H168   H     0.49927   0.57830   0.20946   0.00000  Uiso   1.00
H169   H     0.18377   0.80448   0.25814   0.00000  Uiso   1.00
H170   H     0.14470   0.87671   0.12180   0.00000  Uiso   1.00
H171   H     0.17099   0.86693   0.40692   0.00000  Uiso   1.00
H172   H     0.21474   0.66397   0.24802   0.00000  Uiso   1.00
H173   H     0.13432   0.96605   0.96708   0.00000  Uiso   1.00
H174   H     0.18974   0.94538   0.56827   0.00000  Uiso   1.00
H175   H     0.28200   0.51742   0.23321   0.00000  Uiso   1.00
O176   O     0.22183   0.04530   0.86504   0.00000  Uiso   1.00
O177   O     0.29455   0.01818   0.65377   0.00000  Uiso   1.00
O178   O     0.41559   0.45670   0.21418   0.00000  Uiso   1.00
N179   N     0.30582   0.00267   0.96762   0.00000  Uiso   1.00
N180   N     0.35763   0.98336   0.52968   0.00000  Uiso   1.00
N181   N     0.44389   0.58325   0.21646   0.00000  Uiso   1.00
N182   N     0.18891   0.96991   0.98040   0.00000  Uiso   1.00
N183   N     0.24072   0.95060   0.54246   0.00000  Uiso   1.00
N184   N     0.32698   0.55049   0.22924   0.00000  Uiso   1.00
C185   C     0.64070   0.87940   0.26325   0.00000  Uiso   1.00
C186   C     0.60920   0.83055   0.33431   0.00000  Uiso   1.00
C187   C     0.56446   0.85460   0.40116   0.00000  Uiso   1.00
C188   C     0.54135   0.80127   0.45964   0.00000  Uiso   1.00
C189   C     0.48923   0.73677   0.57119   0.00000  Uiso   1.00
C190   C     0.61451   0.84483   0.17940   0.00000  Uiso   1.00
C191   C     0.57424   0.88089   0.11601   0.00000  Uiso   1.00
C192   C     0.55562   0.83957   0.04408   0.00000  Uiso   1.00
C193   C     0.51179   0.79726   0.91511   0.00000  Uiso   1.00
C194   C     0.72478   0.86860   0.26574   0.00000  Uiso   1.00
C195   C     0.77723   0.92465   0.27492   0.00000  Uiso   1.00
C196   C     0.85144   0.90335   0.27567   0.00000  Uiso   1.00
C197   C     0.97882   0.89794   0.28075   0.00000  Uiso   1.00
C198   C     0.67922   0.74191   0.24822   0.00000  Uiso   1.00
C199   C     0.63013   0.75588   0.32614   0.00000  Uiso   1.00
C200   C     0.60709   0.70249   0.38453   0.00000  Uiso   1.00
C201   C     0.56232   0.72646   0.45146   0.00000  Uiso   1.00
C202   C     0.63543   0.77016   0.17123   0.00000  Uiso   1.00
C203   C     0.61687   0.72878   0.09938   0.00000  Uiso   1.00
C204   C     0.57658   0.76476   0.03590   0.00000  Uiso   1.00
C205   C     0.74571   0.79392   0.25758   0.00000  Uiso   1.00
C206   C     0.81985   0.77253   0.25830   0.00000  Uiso   1.00
C207   C     0.87241   0.82854   0.26748   0.00000  Uiso   1.00
H208   H     0.62441   0.93754   0.26960   0.00000  Uiso   1.00
H209   H     0.54827   0.91240   0.40745   0.00000  Uiso   1.00
H210   H     0.55806   0.93868   0.12235   0.00000  Uiso   1.00
H211   H     0.76102   0.98243   0.28124   0.00000  Uiso   1.00
H212   H     0.47307   0.85159   0.55667   0.00000  Uiso   1.00
H213   H     0.49374   0.90701   0.95549   0.00000  Uiso   1.00
H214   H     0.92170   0.99927   0.29054   0.00000  Uiso   1.00
H215   H     0.69552   0.68377   0.24186   0.00000  Uiso   1.00
H216   H     0.62329   0.64470   0.37820   0.00000  Uiso   1.00
H217   H     0.63307   0.67099   0.09308   0.00000  Uiso   1.00
H218   H     0.83603   0.71474   0.25198   0.00000  Uiso   1.00
H219   H     0.53395   0.63432   0.53292   0.00000  Uiso   1.00
H220   H     0.55462   0.68974   0.93173   0.00000  Uiso   1.00
H221   H     0.98258   0.78200   0.26679   0.00000  Uiso   1.00
O222   O     0.45470   0.72183   0.63496   0.00000  Uiso   1.00
O223   O     0.48182   0.79455   0.84623   0.00000  Uiso   1.00
O224   O     0.04330   0.91559   0.28582   0.00000  Uiso   1.00
N225   N     0.49733   0.80582   0.53238   0.00000  Uiso   1.00
N226   N     0.51664   0.85763   0.97032   0.00000  Uiso   1.00
N227   N     0.91675   0.94389   0.28354   0.00000  Uiso   1.00
N228   N     0.53009   0.68891   0.51960   0.00000  Uiso   1.00
N229   N     0.54940   0.74072   0.95754   0.00000  Uiso   1.00
N230   N     0.94951   0.82698   0.27076   0.00000  Uiso   1.00
C231   C     0.14070   0.37940   0.76325   0.00000  Uiso   1.00
C232   C     0.10920   0.33055   0.83431   0.00000  Uiso   1.00
C233   C     0.06446   0.35460   0.90116   0.00000  Uiso   1.00
C234   C     0.04135   0.30127   0.95964   0.00000  Uiso   1.00
C235   C     0.98923   0.23677   0.07119   0.00000  Uiso   1.00
C236   C     0.11451   0.34483   0.67940   0.00000  Uiso   1.00
C237   C     0.07424   0.38089   0.61601   0.00000  Uiso   1.00
C238   C     0.05562   0.33957   0.54408   0.00000  Uiso   1.00
C239   C     0.01179   0.29726   0.41511   0.00000  Uiso   1.00
C240   C     0.22478   0.36860   0.76574   0.00000  Uiso   1.00
C241   C     0.27723   0.42465   0.77492   0.00000  Uiso   1.00
C242   C     0.35144   0.40335   0.77567   0.00000  Uiso   1.00
C243   C     0.47882   0.39794   0.78075   0.00000  Uiso   1.00
C244   C     0.17922   0.24191   0.74822   0.00000  Uiso   1.00
C245   C     0.13013   0.25588   0.82614   0.00000  Uiso   1.00
C246   C     0.10709   0.20249   0.88453   0.00000  Uiso   1.00
C247   C     0.06232   0.22646   0.95146   0.00000  Uiso   1.00
C248   C     0.13543   0.27016   0.67123   0.00000  Uiso   1.00
C249   C     0.11687   0.22878   0.59938   0.00000  Uiso   1.00
C250   C     0.07658   0.26476   0.53590   0.00000  Uiso   1.00
C251   C     0.24571   0.29392   0.75758   0.00000  Uiso   1.00
C252   C     0.31985   0.27253   0.75830   0.00000  Uiso   1.00
C253   C     0.37241   0.32854   0.76748   0.00000  Uiso   1.00
H254   H     0.12441   0.43754   0.76960   0.00000  Uiso   1.00
H255   H     0.04827   0.41240   0.90745   0.00000  Uiso   1.00
H256   H     0.05806   0.43868   0.62235   0.00000  Uiso   1.00
H257   H     0.26102   0.48243   0.78124   0.00000  Uiso   1.00
H258   H     0.97307   0.35159   0.05667   0.00000  Uiso   1.00
H259   H     0.99374   0.40701   0.45549   0.00000  Uiso   1.00
H260   H     0.42170   0.49927   0.79054   0.00000  Uiso   1.00
H261   H     0.19552   0.18377   0.74186   0.00000  Uiso   1.00
H262   H     0.12329   0.14470   0.87820   0.00000  Uiso   1.00
H263   H     0.13307   0.17099   0.59308   0.00000  Uiso   1.00
H264   H     0.33603   0.21474   0.75198   0.00000  Uiso   1.00
H265   H     0.03395   0.13432   0.03292   0.00000  Uiso   1.00
H266   H     0.05462   0.18974   0.43173   0.00000  Uiso   1.00
H267   H     0.48258   0.28200   0.76679   0.00000  Uiso   1.00
O268   O     0.95470   0.22183   0.13496   0.00000  Uiso   1.00
O269   O     0.98182   0.29455   0.34623   0.00000  Uiso   1.00
O270   O     0.54330   0.41559   0.78582   0.00000  Uiso   1.00
N271   N     0.99733   0.30582   0.03238   0.00000  Uiso   1.00
N272   N     0.01664   0.35763   0.47032   0.00000  Uiso   1.00
N273   N     0.41675   0.44389   0.78354   0.00000  Uiso   1.00
N274   N     0.03009   0.18891   0.01960   0.00000  Uiso   1.00
N275   N     0.04940   0.24072   0.45754   0.00000  Uiso   1.00
N276   N     0.44951   0.32698   0.77076   0.00000  Uiso   1.00
C277   C     0.35930   0.12060   0.26325   0.00000  Uiso   1.00
C278   C     0.39080   0.16945   0.33431   0.00000  Uiso   1.00
C279   C     0.43554   0.14540   0.40116   0.00000  Uiso   1.00
C280   C     0.45865   0.19873   0.45964   0.00000  Uiso   1.00
C281   C     0.51077   0.26323   0.57119   0.00000  Uiso   1.00
C282   C     0.38549   0.15517   0.17940   0.00000  Uiso   1.00
C283   C     0.42576   0.11911   0.11601   0.00000  Uiso   1.00
C284   C     0.44438   0.16043   0.04408   0.00000  Uiso   1.00
C285   C     0.48821   0.20274   0.91511   0.00000  Uiso   1.00
C286   C     0.27522   0.13140   0.26574   0.00000  Uiso   1.00
C287   C     0.22277   0.07535   0.27492   0.00000  Uiso   1.00
C288   C     0.14856   0.09665   0.27567   0.00000  Uiso   1.00
C289   C     0.02118   0.10206   0.28075   0.00000  Uiso   1.00
C290   C     0.32078   0.25809   0.24822   0.00000  Uiso   1.00
C291   C     0.36987   0.24412   0.32614   0.00000  Uiso   1.00
C292   C     0.39291   0.29751   0.38453   0.00000  Uiso   1.00
C293   C     0.43768   0.27354   0.45146   0.00000  Uiso   1.00
C294   C     0.36457   0.22984   0.17123   0.00000  Uiso   1.00
C295   C     0.38313   0.27122   0.09938   0.00000  Uiso   1.00
C296   C     0.42342   0.23524   0.03590   0.00000  Uiso   1.00
C297   C     0.25429   0.20608   0.25758   0.00000  Uiso   1.00
C298   C     0.18015   0.22747   0.25830   0.00000  Uiso   1.00
C299   C     0.12759   0.17146   0.26748   0.00000  Uiso   1.00
H300   H     0.37559   0.06246   0.26960   0.00000  Uiso   1.00
H301   H     0.45173   0.08760   0.40745   0.00000  Uiso   1.00
H302   H     0.44194   0.06132   0.12235   0.00000  Uiso   1.00
H303   H     0.23898   0.01757   0.28124   0.00000  Uiso   1.00
H304   H     0.52693   0.14841   0.55667   0.00000  Uiso   1.00
H305   H     0.50626   0.09299   0.95549   0.00000  Uiso   1.00
H306   H     0.07830   0.00073   0.29054   0.00000  Uiso   1.00
H307   H     0.30448   0.31623   0.24186   0.00000  Uiso   1.00
H308   H     0.37671   0.35530   0.37820   0.00000  Uiso   1.00
H309   H     0.36693   0.32901   0.09308   0.00000  Uiso   1.00
H310   H     0.16397   0.28526   0.25198   0.00000  Uiso   1.00
H311   H     0.46605   0.36568   0.53292   0.00000  Uiso   1.00
H312   H     0.44538   0.31026   0.93173   0.00000  Uiso   1.00
H313   H     0.01742   0.21800   0.26679   0.00000  Uiso   1.00
O314   O     0.54530   0.27817   0.63496   0.00000  Uiso   1.00
O315   O     0.51818   0.20545   0.84623   0.00000  Uiso   1.00
O316   O     0.95670   0.08441   0.28582   0.00000  Uiso   1.00
N317   N     0.50267   0.19418   0.53238   0.00000  Uiso   1.00
N318   N     0.48336   0.14237   0.97032   0.00000  Uiso   1.00
N319   N     0.08325   0.05611   0.28354   0.00000  Uiso   1.00
N320   N     0.46991   0.31109   0.51960   0.00000  Uiso   1.00
N321   N     0.45060   0.25928   0.95754   0.00000  Uiso   1.00
N322   N     0.05049   0.17302   0.27076   0.00000  Uiso   1.00
C323   C     0.85930   0.62060   0.76325   0.00000  Uiso   1.00
C324   C     0.89080   0.66945   0.83431   0.00000  Uiso   1.00
C325   C     0.93554   0.64540   0.90116   0.00000  Uiso   1.00
C326   C     0.95865   0.69873   0.95964   0.00000  Uiso   1.00
C327   C     0.01077   0.76323   0.07119   0.00000  Uiso   1.00
C328   C     0.88549   0.65517   0.67940   0.00000  Uiso   1.00
C329   C     0.92576   0.61911   0.61601   0.00000  Uiso   1.00
C330   C     0.94438   0.66043   0.54408   0.00000  Uiso   1.00
C331   C     0.98821   0.70274   0.41511   0.00000  Uiso   1.00
C332   C     0.77522   0.63140   0.76574   0.00000  Uiso   1.00
C333   C     0.72277   0.57535   0.77492   0.00000  Uiso   1.00
C334   C     0.64856   0.59665   0.77567   0.00000  Uiso   1.00
C335   C     0.52118   0.60206   0.78075   0.00000  Uiso   1.00
C336   C     0.82078   0.75809   0.74822   0.00000  Uiso   1.00
C337   C     0.86987   0.74412   0.82614   0.00000  Uiso   1.00
C338   C     0.89291   0.79751   0.88453   0.00000  Uiso   1.00
C339   C     0.93768   0.77354   0.95146   0.00000  Uiso   1.00
C340   C     0.86457   0.72984   0.67123   0.00000  Uiso   1.00
C341   C     0.88313   0.77122   0.59938   0.00000  Uiso   1.00
C342   C     0.92342   0.73524   0.53590   0.00000  Uiso   1.00
C343   C     0.75429   0.70608   0.75758   0.00000  Uiso   1.00
C344   C     0.68015   0.72747   0.75830   0.00000  Uiso   1.00
C345   C     0.62759   0.67146   0.76748   0.00000  Uiso   1.00
H346   H     0.87559   0.56246   0.76960   0.00000  Uiso   1.00
H347   H     0.95173   0.58760   0.90745   0.00000  Uiso   1.00
H348   H     0.94194   0.56132   0.62235   0.00000  Uiso   1.00
H349   H     0.73898   0.51757   0.78124   0.00000  Uiso   1.00
H350   H     0.02693   0.64841   0.05667   0.00000  Uiso   1.00
H351   H     0.00626   0.59299   0.45549   0.00000  Uiso   1.00
H352   H     0.57830   0.50073   0.79054   0.00000  Uiso   1.00
H353   H     0.80448   0.81623   0.74186   0.00000  Uiso   1.00
H354   H     0.87671   0.85530   0.87820   0.00000  Uiso   1.00
H355   H     0.86693   0.82901   0.59308   0.00000  Uiso   1.00
H356   H     0.66397   0.78526   0.75198   0.00000  Uiso   1.00
H357   H     0.96605   0.86568   0.03292   0.00000  Uiso   1.00
H358   H     0.94538   0.81026   0.43173   0.00000  Uiso   1.00
H359   H     0.51742   0.71800   0.76679   0.00000  Uiso   1.00
O360   O     0.04530   0.77817   0.13496   0.00000  Uiso   1.00
O361   O     0.01818   0.70545   0.34623   0.00000  Uiso   1.00
O362   O     0.45670   0.58441   0.78582   0.00000  Uiso   1.00
N363   N     0.00267   0.69418   0.03238   0.00000  Uiso   1.00
N364   N     0.98336   0.64237   0.47032   0.00000  Uiso   1.00
N365   N     0.58325   0.55611   0.78354   0.00000  Uiso   1.00
N366   N     0.96991   0.81109   0.01960   0.00000  Uiso   1.00
N367   N     0.95060   0.75928   0.45754   0.00000  Uiso   1.00
N368   N     0.55049   0.67302   0.77076   0.00000  Uiso   1.00
