data_job_06791
_audit_creation_date              2018-12-19
_audit_creation_method            'Materials Studio'
_symmetry_space_group_name_H-M    'P1'
_symmetry_Int_Tables_number       1
_symmetry_cell_setting            triclinic
loop_
_symmetry_equiv_pos_as_xyz
  x,y,z
_cell_length_a                    19.9020
_cell_length_b                    21.3671
_cell_length_c                    30.4844
_cell_angle_alpha                 93.6256
_cell_angle_beta                  75.1209
_cell_angle_gamma                 63.7868
loop_
_atom_site_label
_atom_site_type_symbol
_atom_site_fract_x
_atom_site_fract_y
_atom_site_fract_z
_atom_site_U_iso_or_equiv
_atom_site_adp_type
_atom_site_occupancy
C1     C     0.11230   0.75568   0.61901   0.00000  Uiso   1.00
C2     C     0.07793   0.80917   0.66459   0.00000  Uiso   1.00
C3     C     0.00951   0.87421   0.67698   0.00000  Uiso   1.00
C4     C     0.98798   0.91549   0.72022   0.00000  Uiso   1.00
C5     C     0.92773   0.00206   0.78646   0.00000  Uiso   1.00
C6     C     0.19658   0.74307   0.59782   0.00000  Uiso   1.00
C7     C     0.22792   0.75252   0.55408   0.00000  Uiso   1.00
C8     C     0.30629   0.73814   0.54111   0.00000  Uiso   1.00
C9     C     0.43026   0.72204   0.50369   0.00000  Uiso   1.00
C10    C     0.11959   0.68578   0.63211   0.00000  Uiso   1.00
C11    C     0.08622   0.64704   0.61720   0.00000  Uiso   1.00
C12    C     0.09978   0.58442   0.63309   0.00000  Uiso   1.00
C13    C     0.10422   0.47937   0.64891   0.00000  Uiso   1.00
C14    C     0.19575   0.71333   0.67374   0.00000  Uiso   1.00
C15    C     0.12326   0.78617   0.69432   0.00000  Uiso   1.00
C16    C     0.10183   0.82736   0.73754   0.00000  Uiso   1.00
C17    C     0.03339   0.89244   0.75000   0.00000  Uiso   1.00
C18    C     0.24191   0.72007   0.62755   0.00000  Uiso   1.00
C19    C     0.32025   0.70567   0.61464   0.00000  Uiso   1.00
C20    C     0.35169   0.71510   0.57089   0.00000  Uiso   1.00
C21    C     0.16492   0.66277   0.66185   0.00000  Uiso   1.00
C22    C     0.17854   0.60020   0.67776   0.00000  Uiso   1.00
C23    C     0.14519   0.56138   0.66287   0.00000  Uiso   1.00
H24    H     0.07702   0.77358   0.59586   0.00000  Uiso   1.00
H25    H     0.97445   0.89199   0.65396   0.00000  Uiso   1.00
H26    H     0.19283   0.77031   0.53108   0.00000  Uiso   1.00
H27    H     0.05115   0.66486   0.59419   0.00000  Uiso   1.00
H28    H     0.88073   0.01314   0.73149   0.00000  Uiso   1.00
H29    H     0.34122   0.75655   0.47237   0.00000  Uiso   1.00
H30    H     0.04245   0.53418   0.60545   0.00000  Uiso   1.00
H31    H     0.23104   0.69542   0.69689   0.00000  Uiso   1.00
H32    H     0.13692   0.80954   0.76054   0.00000  Uiso   1.00
H33    H     0.35530   0.68786   0.63766   0.00000  Uiso   1.00
H34    H     0.21362   0.58241   0.70076   0.00000  Uiso   1.00
H35    H     0.01260   0.94622   0.81799   0.00000  Uiso   1.00
H36    H     0.47309   0.68963   0.55887   0.00000  Uiso   1.00
H37    H     0.17431   0.46727   0.69195   0.00000  Uiso   1.00
O38    O     0.88198   0.05617   0.81479   0.00000  Uiso   1.00
O39    O     0.48612   0.71952   0.47483   0.00000  Uiso   1.00
O40    O     0.09414   0.42779   0.64943   0.00000  Uiso   1.00
N41    N     0.92468   0.98172   0.74312   0.00000  Uiso   1.00
N42    N     0.35520   0.74183   0.50086   0.00000  Uiso   1.00
N43    N     0.07589   0.53393   0.62527   0.00000  Uiso   1.00
N44    N     0.99563   0.94571   0.78966   0.00000  Uiso   1.00
N45    N     0.42615   0.70583   0.54741   0.00000  Uiso   1.00
N46    N     0.14685   0.49792   0.67181   0.00000  Uiso   1.00
C47    C     0.51823   0.94723   0.66453   0.00000  Uiso   1.00
C48    C     0.48212   0.90434   0.68952   0.00000  Uiso   1.00
C49    C     0.43655   0.87935   0.67454   0.00000  Uiso   1.00
C50    C     0.40898   0.84118   0.70233   0.00000  Uiso   1.00
C51    C     0.35023   0.77655   0.73486   0.00000  Uiso   1.00
C52    C     0.48783   0.01575   0.69931   0.00000  Uiso   1.00
C53    C     0.44708   0.08443   0.69255   0.00000  Uiso   1.00
C54    C     0.42434   0.14004   0.72858   0.00000  Uiso   1.00
C55    C     0.37451   0.24837   0.77630   0.00000  Uiso   1.00
C56    C     0.60671   0.90560   0.65684   0.00000  Uiso   1.00
C57    C     0.66592   0.88168   0.61438   0.00000  Uiso   1.00
C58    C     0.74327   0.84458   0.61466   0.00000  Uiso   1.00
C59    C     0.87802   0.78189   0.59645   0.00000  Uiso   1.00
C60    C     0.55031   0.92389   0.74052   0.00000  Uiso   1.00
C61    C     0.49954   0.89167   0.73080   0.00000  Uiso   1.00
C62    C     0.47205   0.85352   0.75861   0.00000  Uiso   1.00
C63    C     0.42644   0.82848   0.74368   0.00000  Uiso   1.00
C64    C     0.50526   0.00307   0.74058   0.00000  Uiso   1.00
C65    C     0.48258   0.05860   0.77663   0.00000  Uiso   1.00
C66    C     0.44180   0.12734   0.76993   0.00000  Uiso   1.00
C67    C     0.62414   0.89292   0.69812   0.00000  Uiso   1.00
C68    C     0.70142   0.85585   0.69846   0.00000  Uiso   1.00
C69    C     0.76073   0.83187   0.65601   0.00000  Uiso   1.00
H70    H     0.50466   0.95711   0.63240   0.00000  Uiso   1.00
H71    H     0.42307   0.88918   0.64259   0.00000  Uiso   1.00
H72    H     0.43361   0.09422   0.66060   0.00000  Uiso   1.00
H73    H     0.65241   0.89151   0.58245   0.00000  Uiso   1.00
H74    H     0.34027   0.80830   0.67211   0.00000  Uiso   1.00
H75    H     0.36252   0.24065   0.71008   0.00000  Uiso   1.00
H76    H     0.82391   0.81318   0.54528   0.00000  Uiso   1.00
H77    H     0.56388   0.91402   0.77266   0.00000  Uiso   1.00
H78    H     0.48554   0.84372   0.79055   0.00000  Uiso   1.00
H79    H     0.49608   0.04877   0.80856   0.00000  Uiso   1.00
H80    H     0.71488   0.84605   0.73041   0.00000  Uiso   1.00
H81    H     0.39097   0.77141   0.79221   0.00000  Uiso   1.00
H82    H     0.41322   0.20376   0.83017   0.00000  Uiso   1.00
H83    H     0.87461   0.77629   0.66537   0.00000  Uiso   1.00
O84    O     0.31300   0.74441   0.74141   0.00000  Uiso   1.00
O85    O     0.34220   0.31163   0.79121   0.00000  Uiso   1.00
O86    O     0.94753   0.75080   0.57500   0.00000  Uiso   1.00
N87    N     0.36297   0.80925   0.69792   0.00000  Uiso   1.00
N88    N     0.38376   0.21347   0.73341   0.00000  Uiso   1.00
N89    N     0.81512   0.81384   0.57934   0.00000  Uiso   1.00
N90    N     0.39025   0.78940   0.76254   0.00000  Uiso   1.00
N91    N     0.41104   0.19362   0.79803   0.00000  Uiso   1.00
N92    N     0.84240   0.79399   0.64396   0.00000  Uiso   1.00
C93    C     0.18918   0.11778   0.65912   0.00000  Uiso   1.00
C94    C     0.20005   0.08602   0.70178   0.00000  Uiso   1.00
C95    C     0.26241   0.07219   0.71886   0.00000  Uiso   1.00
C96    C     0.26159   0.04303   0.75830   0.00000  Uiso   1.00
C97    C     0.28777   0.99592   0.82126   0.00000  Uiso   1.00
C98    C     0.18212   0.06469   0.62719   0.00000  Uiso   1.00
C99    C     0.22941   0.03293   0.58154   0.00000  Uiso   1.00
C100   C     0.21349   0.98582   0.55818   0.00000  Uiso   1.00
C101   C     0.21181   0.90564   0.50532   0.00000  Uiso   1.00
C102   C     0.10838   0.18399   0.67557   0.00000  Uiso   1.00
C103   C     0.09365   0.25255   0.67059   0.00000  Uiso   1.00
C104   C     0.01564   0.30588   0.68796   0.00000  Uiso   1.00
C105   C     0.89945   0.41093   0.71021   0.00000  Uiso   1.00
C106   C     0.07683   0.09059   0.69879   0.00000  Uiso   1.00
C107   C     0.13902   0.07125   0.72333   0.00000  Uiso   1.00
C108   C     0.13811   0.04210   0.76275   0.00000  Uiso   1.00
C109   C     0.20046   0.02823   0.77989   0.00000  Uiso   1.00
C110   C     0.12110   0.04992   0.64873   0.00000  Uiso   1.00
C111   C     0.10511   0.00285   0.62544   0.00000  Uiso   1.00
C112   C     0.15236   0.97102   0.57977   0.00000  Uiso   1.00
C113   C     0.04735   0.16922   0.69712   0.00000  Uiso   1.00
C114   C     0.96935   0.22246   0.71449   0.00000  Uiso   1.00
C115   C     0.95450   0.29108   0.70954   0.00000  Uiso   1.00
H116   H     0.23669   0.12928   0.64234   0.00000  Uiso   1.00
H117   H     0.30963   0.08362   0.70217   0.00000  Uiso   1.00
H118   H     0.27662   0.04438   0.56488   0.00000  Uiso   1.00
H119   H     0.14088   0.26396   0.65392   0.00000  Uiso   1.00
H120   H     0.36359   0.02647   0.77800   0.00000  Uiso   1.00
H121   H     0.29399   0.94374   0.48850   0.00000  Uiso   1.00
H122   H     0.00776   0.40676   0.67625   0.00000  Uiso   1.00
H123   H     0.02932   0.07909   0.71557   0.00000  Uiso   1.00
H124   H     0.09088   0.03068   0.77942   0.00000  Uiso   1.00
H125   H     0.05788   0.99143   0.64212   0.00000  Uiso   1.00
H126   H     0.92214   0.21101   0.73116   0.00000  Uiso   1.00
H127   H     0.18605   0.98349   0.84070   0.00000  Uiso   1.00
H128   H     0.11645   0.90076   0.55119   0.00000  Uiso   1.00
H129   H     0.83022   0.36378   0.73895   0.00000  Uiso   1.00
O130   O     0.31907   0.97401   0.85003   0.00000  Uiso   1.00
O131   O     0.22775   0.86549   0.47020   0.00000  Uiso   1.00
O132   O     0.85222   0.47296   0.71654   0.00000  Uiso   1.00
N133   N     0.31335   0.02301   0.78400   0.00000  Uiso   1.00
N134   N     0.24829   0.94565   0.51333   0.00000  Uiso   1.00
N135   N     0.98068   0.37854   0.68886   0.00000  Uiso   1.00
N136   N     0.21782   0.99988   0.81774   0.00000  Uiso   1.00
N137   N     0.15275   0.92253   0.54707   0.00000  Uiso   1.00
N138   N     0.88515   0.35541   0.72259   0.00000  Uiso   1.00
C139   C     0.77482   0.10228   0.00179   0.00000  Uiso   1.00
C140   C     0.71308   0.15669   0.04528   0.00000  Uiso   1.00
C141   C     0.68939   0.22912   0.05332   0.00000  Uiso   1.00
C142   C     0.63210   0.26993   0.09528   0.00000  Uiso   1.00
C143   C     0.54112   0.35908   0.15781   0.00000  Uiso   1.00
C144   C     0.73381   0.06623   0.98304   0.00000  Uiso   1.00
C145   C     0.72757   0.06261   0.93874   0.00000  Uiso   1.00
C146   C     0.68775   0.02727   0.92830   0.00000  Uiso   1.00
C147   C     0.62901   0.97594   0.89419   0.00000  Uiso   1.00
C148   C     0.83673   0.04530   0.01832   0.00000  Uiso   1.00
C149   C     0.91702   0.02405   0.00369   0.00000  Uiso   1.00
C150   C     0.96385   0.97106   0.02294   0.00000  Uiso   1.00
C151   C     0.06490   0.88723   0.04362   0.00000  Uiso   1.00
C152   C     0.71522   0.04593   0.06200   0.00000  Uiso   1.00
C153   C     0.68070   0.12608   0.07798   0.00000  Uiso   1.00
C154   C     0.62344   0.16679   0.11993   0.00000  Uiso   1.00
C155   C     0.59967   0.23927   0.12804   0.00000  Uiso   1.00
C156   C     0.70144   0.03563   0.01574   0.00000  Uiso   1.00
C157   C     0.66162   0.00028   0.00535   0.00000  Uiso   1.00
C158   C     0.65531   0.99661   0.96106   0.00000  Uiso   1.00
C159   C     0.80435   0.01469   0.05102   0.00000  Uiso   1.00
C160   C     0.85107   0.96172   0.07030   0.00000  Uiso   1.00
C161   C     0.93142   0.94041   0.05570   0.00000  Uiso   1.00
H162   H     0.80003   0.12610   0.97633   0.00000  Uiso   1.00
H163   H     0.71445   0.25279   0.02801   0.00000  Uiso   1.00
H164   H     0.75263   0.08629   0.91344   0.00000  Uiso   1.00
H165   H     0.94205   0.04774   0.97838   0.00000  Uiso   1.00
H166   H     0.60528   0.37975   0.09971   0.00000  Uiso   1.00
H167   H     0.68581   0.02868   0.85814   0.00000  Uiso   1.00
H168   H     0.08524   0.94738   0.99508   0.00000  Uiso   1.00
H169   H     0.69001   0.02211   0.08746   0.00000  Uiso   1.00
H170   H     0.59840   0.14309   0.14523   0.00000  Uiso   1.00
H171   H     0.63658   0.97660   0.03067   0.00000  Uiso   1.00
H172   H     0.82600   0.93805   0.09561   0.00000  Uiso   1.00
H173   H     0.51108   0.29072   0.19485   0.00000  Uiso   1.00
H174   H     0.59162   0.93964   0.95328   0.00000  Uiso   1.00
H175   H     0.99104   0.85835   0.09022   0.00000  Uiso   1.00
O176   O     0.49988   0.41670   0.18327   0.00000  Uiso   1.00
O177   O     0.60555   0.95610   0.86634   0.00000  Uiso   1.00
O178   O     0.12958   0.84945   0.04600   0.00000  Uiso   1.00
N179   N     0.59569   0.34219   0.11418   0.00000  Uiso   1.00
N180   N     0.67097   0.01397   0.88833   0.00000  Uiso   1.00
N181   N     0.04441   0.93795   0.01634   0.00000  Uiso   1.00
N182   N     0.54501   0.29429   0.16537   0.00000  Uiso   1.00
N183   N     0.62029   0.96606   0.93952   0.00000  Uiso   1.00
N184   N     0.99372   0.89005   0.06754   0.00000  Uiso   1.00
C185   C     0.41140   0.99018   0.05401   0.00000  Uiso   1.00
C186   C     0.44335   0.00732   0.09092   0.00000  Uiso   1.00
C187   C     0.51578   0.96373   0.09626   0.00000  Uiso   1.00
C188   C     0.53414   0.98905   0.13214   0.00000  Uiso   1.00
C189   C     0.59172   0.00557   0.18496   0.00000  Uiso   1.00
C190   C     0.39298   0.05144   0.02813   0.00000  Uiso   1.00
C191   C     0.42306   0.04494   0.98069   0.00000  Uiso   1.00
C192   C     0.39901   0.10739   0.96371   0.00000  Uiso   1.00
C193   C     0.37835   0.19240   0.91905   0.00000  Uiso   1.00
C194   C     0.33194   0.99570   0.08014   0.00000  Uiso   1.00
C195   C     0.31069   0.94234   0.07641   0.00000  Uiso   1.00
C196   C     0.23524   0.95788   0.10321   0.00000  Uiso   1.00
C197   C     0.11981   0.95634   0.13929   0.00000  Uiso   1.00
C198   C     0.31519   0.11265   0.10823   0.00000  Uiso   1.00
C199   C     0.39109   0.07385   0.12037   0.00000  Uiso   1.00
C200   C     0.40934   0.09924   0.15625   0.00000  Uiso   1.00
C201   C     0.48179   0.05569   0.16165   0.00000  Uiso   1.00
C202   C     0.34073   0.11796   0.05758   0.00000  Uiso   1.00
C203   C     0.31662   0.18044   0.04068   0.00000  Uiso   1.00
C204   C     0.34666   0.17403   0.99322   0.00000  Uiso   1.00
C205   C     0.27969   0.06223   0.10959   0.00000  Uiso   1.00
C206   C     0.20425   0.07785   0.13640   0.00000  Uiso   1.00
C207   C     0.18289   0.02452   0.13272   0.00000  Uiso   1.00
H208   H     0.45208   0.93839   0.03108   0.00000  Uiso   1.00
H209   H     0.55621   0.91226   0.07346   0.00000  Uiso   1.00
H210   H     0.46349   0.99345   0.95790   0.00000  Uiso   1.00
H211   H     0.35114   0.89087   0.05361   0.00000  Uiso   1.00
H212   H     0.64862   0.91264   0.13342   0.00000  Uiso   1.00
H213   H     0.45311   0.08383   0.88976   0.00000  Uiso   1.00
H214   H     0.21619   0.86752   0.09159   0.00000  Uiso   1.00
H215   H     0.27451   0.16445   0.13116   0.00000  Uiso   1.00
H216   H     0.36889   0.15072   0.17904   0.00000  Uiso   1.00
H217   H     0.27618   0.23191   0.06348   0.00000  Uiso   1.00
H218   H     0.16383   0.12933   0.15919   0.00000  Uiso   1.00
H219   H     0.49659   0.10618   0.21911   0.00000  Uiso   1.00
H220   H     0.30108   0.27737   0.97545   0.00000  Uiso   1.00
H221   H     0.06417   0.06107   0.17728   0.00000  Uiso   1.00
O222   O     0.63791   0.99631   0.20595   0.00000  Uiso   1.00
O223   O     0.38139   0.22090   0.88627   0.00000  Uiso   1.00
O224   O     0.07057   0.93711   0.15106   0.00000  Uiso   1.00
N225   N     0.59988   0.96006   0.14703   0.00000  Uiso   1.00
N226   N     0.41710   0.12012   0.91922   0.00000  Uiso   1.00
N227   N     0.19560   0.91790   0.10790   0.00000  Uiso   1.00
N228   N     0.51808   0.06421   0.19314   0.00000  Uiso   1.00
N229   N     0.33529   0.22426   0.96533   0.00000  Uiso   1.00
N230   N     0.11379   0.02204   0.15401   0.00000  Uiso   1.00
C231   C     0.28766   0.43512   0.03560   0.00000  Uiso   1.00
C232   C     0.25971   0.40703   0.07746   0.00000  Uiso   1.00
C233   C     0.19038   0.40205   0.09023   0.00000  Uiso   1.00
C234   C     0.17544   0.37490   0.12967   0.00000  Uiso   1.00
C235   C     0.12407   0.33450   0.19075   0.00000  Uiso   1.00
C236   C     0.36956   0.37573   0.00721   0.00000  Uiso   1.00
C237   C     0.39259   0.34444   0.96092   0.00000  Uiso   1.00
C238   C     0.47014   0.29094   0.94123   0.00000  Uiso   1.00
C239   C     0.58932   0.20198   0.89324   0.00000  Uiso   1.00
C240   C     0.30003   0.49562   0.05455   0.00000  Uiso   1.00
C241   C     0.26462   0.56513   0.04806   0.00000  Uiso   1.00
C242   C     0.28365   0.61257   0.06821   0.00000  Uiso   1.00
C243   C     0.29488   0.70976   0.09373   0.00000  Uiso   1.00
C244   C     0.38443   0.39575   0.08293   0.00000  Uiso   1.00
C245   C     0.31227   0.38565   0.10316   0.00000  Uiso   1.00
C246   C     0.29744   0.35850   0.14260   0.00000  Uiso   1.00
C247   C     0.22810   0.35348   0.15543   0.00000  Uiso   1.00
C248   C     0.42212   0.35435   0.03292   0.00000  Uiso   1.00
C249   C     0.49965   0.30088   0.01329   0.00000  Uiso   1.00
C250   C     0.52279   0.26952   0.96698   0.00000  Uiso   1.00
C251   C     0.35259   0.47424   0.08026   0.00000  Uiso   1.00
C252   C     0.37168   0.52157   0.10043   0.00000  Uiso   1.00
C253   C     0.33630   0.59115   0.09397   0.00000  Uiso   1.00
H254   H     0.24675   0.45177   0.01558   0.00000  Uiso   1.00
H255   H     0.14972   0.41860   0.07032   0.00000  Uiso   1.00
H256   H     0.35191   0.36101   0.94104   0.00000  Uiso   1.00
H257   H     0.22395   0.58166   0.02816   0.00000  Uiso   1.00
H258   H     0.06534   0.37238   0.14235   0.00000  Uiso   1.00
H259   H     0.49167   0.25095   0.86973   0.00000  Uiso   1.00
H260   H     0.22186   0.71624   0.05345   0.00000  Uiso   1.00
H261   H     0.42535   0.37910   0.10294   0.00000  Uiso   1.00
H262   H     0.33812   0.34195   0.16248   0.00000  Uiso   1.00
H263   H     0.54031   0.28435   0.03319   0.00000  Uiso   1.00
H264   H     0.41236   0.50501   0.12032   0.00000  Uiso   1.00
H265   H     0.21826   0.31016   0.21714   0.00000  Uiso   1.00
H266   H     0.64458   0.18873   0.94452   0.00000  Uiso   1.00
H267   H     0.37477   0.65403   0.12825   0.00000  Uiso   1.00
O268   O     0.08121   0.31812   0.21733   0.00000  Uiso   1.00
O269   O     0.64053   0.15882   0.85966   0.00000  Uiso   1.00
O270   O     0.28655   0.76927   0.10070   0.00000  Uiso   1.00
N271   N     0.11330   0.36285   0.15178   0.00000  Uiso   1.00
N272   N     0.51188   0.24931   0.89690   0.00000  Uiso   1.00
N273   N     0.25965   0.68432   0.06866   0.00000  Uiso   1.00
N274   N     0.19558   0.32937   0.19203   0.00000  Uiso   1.00
N275   N     0.59416   0.21583   0.93715   0.00000  Uiso   1.00
N276   N     0.34193   0.65084   0.10891   0.00000  Uiso   1.00
C277   C     0.20746   0.99119   0.34209   0.00000  Uiso   1.00
C278   C     0.24101   0.93371   0.29862   0.00000  Uiso   1.00
C279   C     0.31252   0.87142   0.28608   0.00000  Uiso   1.00
C280   C     0.33265   0.82564   0.24499   0.00000  Uiso   1.00
C281   C     0.39229   0.73395   0.18169   0.00000  Uiso   1.00
C282   C     0.12633   0.99958   0.36760   0.00000  Uiso   1.00
C283   C     0.10141   0.99268   0.41307   0.00000  Uiso   1.00
C284   C     0.02499   0.00237   0.43004   0.00000  Uiso   1.00
C285   C     0.90657   0.01299   0.47385   0.00000  Uiso   1.00
C286   C     0.19239   0.06047   0.32532   0.00000  Uiso   1.00
C287   C     0.22298   0.10478   0.33524   0.00000  Uiso   1.00
C288   C     0.20216   0.16574   0.31663   0.00000  Uiso   1.00
C289   C     0.18629   0.27090   0.29478   0.00000  Uiso   1.00
C290   C     0.11606   0.02068   0.29140   0.00000  Uiso   1.00
C291   C     0.19137   0.94973   0.27109   0.00000  Uiso   1.00
C292   C     0.21140   0.90404   0.23000   0.00000  Uiso   1.00
C293   C     0.28292   0.84169   0.21741   0.00000  Uiso   1.00
C294   C     0.07669   0.01560   0.34007   0.00000  Uiso   1.00
C295   C     0.00029   0.02531   0.35699   0.00000  Uiso   1.00
C296   C     0.97526   0.01841   0.40246   0.00000  Uiso   1.00
C297   C     0.14274   0.07649   0.29779   0.00000  Uiso   1.00
C298   C     0.12186   0.13740   0.27916   0.00000  Uiso   1.00
C299   C     0.15243   0.18179   0.28904   0.00000  Uiso   1.00
H300   H     0.24610   0.97872   0.36353   0.00000  Uiso   1.00
H301   H     0.35092   0.85904   0.30740   0.00000  Uiso   1.00
H302   H     0.13984   0.98029   0.43437   0.00000  Uiso   1.00
H303   H     0.26140   0.09236   0.35655   0.00000  Uiso   1.00
H304   H     0.44521   0.73340   0.23304   0.00000  Uiso   1.00
H305   H     0.00014   0.98909   0.50076   0.00000  Uiso   1.00
H306   H     0.25647   0.22542   0.33666   0.00000  Uiso   1.00
H307   H     0.07740   0.03315   0.26997   0.00000  Uiso   1.00
H308   H     0.17297   0.91645   0.20870   0.00000  Uiso   1.00
H309   H     0.96189   0.03771   0.33567   0.00000  Uiso   1.00
H310   H     0.08345   0.14978   0.25785   0.00000  Uiso   1.00
H311   H     0.30078   0.78000   0.15293   0.00000  Uiso   1.00
H312   H     0.85570   0.03569   0.42066   0.00000  Uiso   1.00
H313   H     0.11203   0.27202   0.25656   0.00000  Uiso   1.00
O314   O     0.43889   0.67894   0.15438   0.00000  Uiso   1.00
O315   O     0.85496   0.01441   0.50562   0.00000  Uiso   1.00
O316   O     0.19126   0.32447   0.29033   0.00000  Uiso   1.00
N317   N     0.39812   0.76039   0.22259   0.00000  Uiso   1.00
N318   N     0.98200   0.99943   0.47289   0.00000  Uiso   1.00
N319   N     0.22163   0.22039   0.31949   0.00000  Uiso   1.00
N320   N     0.32040   0.78546   0.17949   0.00000  Uiso   1.00
N321   N     0.90428   0.02451   0.42979   0.00000  Uiso   1.00
N322   N     0.14391   0.24547   0.27638   0.00000  Uiso   1.00
C323   C     0.69603   0.10716   0.38926   0.00000  Uiso   1.00
C324   C     0.75701   0.10133   0.34481   0.00000  Uiso   1.00
C325   C     0.79536   0.14241   0.33908   0.00000  Uiso   1.00
C326   C     0.84913   0.12888   0.29572   0.00000  Uiso   1.00
C327   C     0.94159   0.12783   0.23222   0.00000  Uiso   1.00
C328   C     0.72748   0.03312   0.40076   0.00000  Uiso   1.00
C329   C     0.74098   0.01686   0.44208   0.00000  Uiso   1.00
C330   C     0.76989   0.94590   0.44583   0.00000  Uiso   1.00
C331   C     0.81644   0.83896   0.46921   0.00000  Uiso   1.00
C332   C     0.62233   0.12049   0.37644   0.00000  Uiso   1.00
C333   C     0.54741   0.17767   0.39731   0.00000  Uiso   1.00
C334   C     0.48777   0.18027   0.38058   0.00000  Uiso   1.00
C335   C     0.37106   0.20898   0.36620   0.00000  Uiso   1.00
C336   C     0.72335   0.01007   0.32245   0.00000  Uiso   1.00
C337   C     0.77185   0.04860   0.30852   0.00000  Uiso   1.00
C338   C     0.82558   0.03500   0.26516   0.00000  Uiso   1.00
C339   C     0.86399   0.07605   0.25937   0.00000  Uiso   1.00
C340   C     0.74232   0.98039   0.36447   0.00000  Uiso   1.00
C341   C     0.77120   0.90944   0.36816   0.00000  Uiso   1.00
C342   C     0.78475   0.89307   0.40947   0.00000  Uiso   1.00
C343   C     0.63717   0.06776   0.34015   0.00000  Uiso   1.00
C344   C     0.57763   0.07026   0.32339   0.00000  Uiso   1.00
C345   C     0.50264   0.12744   0.34423   0.00000  Uiso   1.00
H346   H     0.68448   0.14821   0.41752   0.00000  Uiso   1.00
H347   H     0.78386   0.18321   0.36717   0.00000  Uiso   1.00
H348   H     0.72949   0.05768   0.47016   0.00000  Uiso   1.00
H349   H     0.53595   0.21847   0.42539   0.00000  Uiso   1.00
H350   H     0.90061   0.19875   0.29535   0.00000  Uiso   1.00
H351   H     0.78593   0.93405   0.51251   0.00000  Uiso   1.00
H352   H     0.37781   0.27311   0.41812   0.00000  Uiso   1.00
H353   H     0.73490   0.96902   0.29420   0.00000  Uiso   1.00
H354   H     0.83705   0.99419   0.23709   0.00000  Uiso   1.00
H355   H     0.78268   0.86865   0.34007   0.00000  Uiso   1.00
H356   H     0.58914   0.02944   0.29531   0.00000  Uiso   1.00
H357   H     0.94378   0.04532   0.18977   0.00000  Uiso   1.00
H358   H     0.82910   0.78062   0.40693   0.00000  Uiso   1.00
H359   H     0.42098   0.11969   0.31254   0.00000  Uiso   1.00
O360   O     0.98850   0.14181   0.20722   0.00000  Uiso   1.00
O361   O     0.83803   0.79454   0.49213   0.00000  Uiso   1.00
O362   O     0.30259   0.23938   0.36828   0.00000  Uiso   1.00
N363   N     0.89674   0.15919   0.27834   0.00000  Uiso   1.00
N364   N     0.78954   0.91171   0.48137   0.00000  Uiso   1.00
N365   N     0.40797   0.22870   0.39313   0.00000  Uiso   1.00
N366   N     0.91997   0.07664   0.22153   0.00000  Uiso   1.00
N367   N     0.81276   0.82916   0.42456   0.00000  Uiso   1.00
N368   N     0.43120   0.14615   0.33631   0.00000  Uiso   1.00
C369   C     0.06809   0.67106   0.32804   0.00000  Uiso   1.00
C370   C     0.05394   0.71552   0.29093   0.00000  Uiso   1.00
C371   C     0.98876   0.73862   0.27547   0.00000  Uiso   1.00
C372   C     0.98683   0.77874   0.24128   0.00000  Uiso   1.00
C373   C     0.95555   0.84533   0.18641   0.00000  Uiso   1.00
C374   C     0.07958   0.71350   0.36493   0.00000  Uiso   1.00
C375   C     0.03597   0.73487   0.41169   0.00000  Uiso   1.00
C376   C     0.05564   0.77328   0.43979   0.00000  Uiso   1.00
C377   C     0.06420   0.83667   0.49982   0.00000  Uiso   1.00
C378   C     0.14781   0.60485   0.30550   0.00000  Uiso   1.00
C379   C     0.16158   0.53487   0.30230   0.00000  Uiso   1.00
C380   C     0.23870   0.48181   0.28037   0.00000  Uiso   1.00
C381   C     0.35320   0.37651   0.24812   0.00000  Uiso   1.00
C382   C     0.18056   0.70125   0.29480   0.00000  Uiso   1.00
C383   C     0.11503   0.73193   0.27287   0.00000  Uiso   1.00
C384   C     0.11320   0.77203   0.23869   0.00000  Uiso   1.00
C385   C     0.04804   0.79517   0.22319   0.00000  Uiso   1.00
C386   C     0.14067   0.72990   0.34688   0.00000  Uiso   1.00
C387   C     0.16041   0.76828   0.37492   0.00000  Uiso   1.00
C388   C     0.11684   0.78972   0.42171   0.00000  Uiso   1.00
C389   C     0.20890   0.62125   0.28744   0.00000  Uiso   1.00
C390   C     0.28602   0.56829   0.26552   0.00000  Uiso   1.00
C391   C     0.29990   0.49825   0.26229   0.00000  Uiso   1.00
H392   H     0.02052   0.65829   0.34210   0.00000  Uiso   1.00
H393   H     0.94149   0.72592   0.28945   0.00000  Uiso   1.00
H394   H     0.98870   0.72216   0.42565   0.00000  Uiso   1.00
H395   H     0.11429   0.52220   0.31627   0.00000  Uiso   1.00
H396   H     0.88080   0.80815   0.22313   0.00000  Uiso   1.00
H397   H     0.98036   0.80022   0.51032   0.00000  Uiso   1.00
H398   H     0.24519   0.37856   0.27968   0.00000  Uiso   1.00
H399   H     0.22812   0.71402   0.28075   0.00000  Uiso   1.00
H400   H     0.16049   0.78471   0.22473   0.00000  Uiso   1.00
H401   H     0.20769   0.78096   0.36093   0.00000  Uiso   1.00
H402   H     0.33328   0.58100   0.25155   0.00000  Uiso   1.00
H403   H     0.05854   0.85588   0.17060   0.00000  Uiso   1.00
H404   H     0.15810   0.84794   0.45779   0.00000  Uiso   1.00
H405   H     0.42293   0.42628   0.22715   0.00000  Uiso   1.00
O406   O     0.92142   0.87753   0.16114   0.00000  Uiso   1.00
O407   O     0.05204   0.86711   0.53792   0.00000  Uiso   1.00
O408   O     0.39949   0.31390   0.23531   0.00000  Uiso   1.00
N409   N     0.93192   0.80967   0.21845   0.00000  Uiso   1.00
N410   N     0.02499   0.80226   0.48696   0.00000  Uiso   1.00
N411   N     0.27259   0.40805   0.27133   0.00000  Uiso   1.00
N412   N     0.02756   0.83535   0.19019   0.00000  Uiso   1.00
N413   N     0.12064   0.82794   0.45869   0.00000  Uiso   1.00
N414   N     0.36823   0.43372   0.24306   0.00000  Uiso   1.00
C415   C     0.52039   0.69272   0.97249   0.00000  Uiso   1.00
C416   C     0.57250   0.63874   0.92710   0.00000  Uiso   1.00
C417   C     0.59196   0.56720   0.91956   0.00000  Uiso   1.00
C418   C     0.64041   0.52665   0.87560   0.00000  Uiso   1.00
C419   C     0.71711   0.43825   0.81047   0.00000  Uiso   1.00
C420   C     0.56997   0.72422   0.98515   0.00000  Uiso   1.00
C421   C     0.58730   0.72457   0.02643   0.00000  Uiso   1.00
C422   C     0.63361   0.75599   0.03135   0.00000  Uiso   1.00
C423   C     0.70634   0.80036   0.05636   0.00000  Uiso   1.00
C424   C     0.45395   0.75303   0.96092   0.00000  Uiso   1.00
C425   C     0.37371   0.77762   0.98182   0.00000  Uiso   1.00
C426   C     0.32234   0.83330   0.96634   0.00000  Uiso   1.00
C427   C     0.21492   0.92239   0.95372   0.00000  Uiso   1.00
C428   C     0.57183   0.74791   0.90783   0.00000  Uiso   1.00
C429   C     0.60044   0.66871   0.89198   0.00000  Uiso   1.00
C430   C     0.64888   0.62826   0.84802   0.00000  Uiso   1.00
C431   C     0.66840   0.55667   0.84042   0.00000  Uiso   1.00
C432   C     0.59792   0.75420   0.95003   0.00000  Uiso   1.00
C433   C     0.64421   0.78563   0.95489   0.00000  Uiso   1.00
C434   C     0.66161   0.78602   0.99616   0.00000  Uiso   1.00
C435   C     0.48189   0.78300   0.92579   0.00000  Uiso   1.00
C436   C     0.43063   0.83866   0.91028   0.00000  Uiso   1.00
C437   C     0.35033   0.86333   0.93116   0.00000  Uiso   1.00
H438   H     0.49863   0.66939   0.99984   0.00000  Uiso   1.00
H439   H     0.57033   0.54403   0.94675   0.00000  Uiso   1.00
H440   H     0.56566   0.70138   0.05360   0.00000  Uiso   1.00
H441   H     0.35211   0.75441   0.00900   0.00000  Uiso   1.00
H442   H     0.66216   0.41825   0.87241   0.00000  Uiso   1.00
H443   H     0.65229   0.75006   0.09772   0.00000  Uiso   1.00
H444   H     0.20198   0.86188   0.00367   0.00000  Uiso   1.00
H445   H     0.59359   0.77124   0.88049   0.00000  Uiso   1.00
H446   H     0.67049   0.65147   0.82085   0.00000  Uiso   1.00
H447   H     0.66582   0.80882   0.92771   0.00000  Uiso   1.00
H448   H     0.45227   0.86185   0.88310   0.00000  Uiso   1.00
H449   H     0.74346   0.50545   0.77023   0.00000  Uiso   1.00
H450   H     0.73359   0.83726   0.99554   0.00000  Uiso   1.00
H451   H     0.28328   0.94908   0.90149   0.00000  Uiso   1.00
O452   O     0.75171   0.38121   0.78424   0.00000  Uiso   1.00
O453   O     0.73874   0.81655   0.07985   0.00000  Uiso   1.00
O454   O     0.14795   0.96325   0.95645   0.00000  Uiso   1.00
N455   N     0.67073   0.45521   0.85654   0.00000  Uiso   1.00
N456   N     0.66151   0.76543   0.06720   0.00000  Uiso   1.00
N457   N     0.24050   0.86998   0.97927   0.00000  Uiso   1.00
N458   N     0.71447   0.50213   0.80156   0.00000  Uiso   1.00
N459   N     0.70526   0.81235   0.01221   0.00000  Uiso   1.00
N460   N     0.28425   0.91690   0.92429   0.00000  Uiso   1.00
C461   C     0.99798   0.67550   0.90422   0.00000  Uiso   1.00
C462   C     0.96621   0.66328   0.86582   0.00000  Uiso   1.00
C463   C     0.88706   0.69005   0.86952   0.00000  Uiso   1.00
C464   C     0.87015   0.67281   0.83044   0.00000  Uiso   1.00
C465   C     0.81168   0.66028   0.77710   0.00000  Uiso   1.00
C466   C     0.05261   0.60167   0.91015   0.00000  Uiso   1.00
C467   C     0.04611   0.57663   0.95113   0.00000  Uiso   1.00
C468   C     0.10193   0.50753   0.94938   0.00000  Uiso   1.00
C469   C     0.17762   0.39936   0.96489   0.00000  Uiso   1.00
C470   C     0.05099   0.70795   0.88462   0.00000  Uiso   1.00
C471   C     0.04314   0.77226   0.90414   0.00000  Uiso   1.00
C472   C     0.09761   0.79263   0.88090   0.00000  Uiso   1.00
C473   C     0.17078   0.84946   0.85676   0.00000  Uiso   1.00
C474   C     0.10869   0.59730   0.82825   0.00000  Uiso   1.00
C475   C     0.02635   0.62080   0.82455   0.00000  Uiso   1.00
C476   C     0.00955   0.60353   0.78547   0.00000  Uiso   1.00
C477   C     0.93039   0.63026   0.78911   0.00000  Uiso   1.00
C478   C     0.11274   0.55919   0.86889   0.00000  Uiso   1.00
C479   C     0.16859   0.49011   0.86708   0.00000  Uiso   1.00
C480   C     0.16217   0.46498   0.90805   0.00000  Uiso   1.00
C481   C     0.11112   0.66547   0.84336   0.00000  Uiso   1.00
C482   C     0.16562   0.68574   0.82009   0.00000  Uiso   1.00
C483   C     0.15785   0.75007   0.83956   0.00000  Uiso   1.00
H484   H     0.95117   0.70857   0.93634   0.00000  Uiso   1.00
H485   H     0.84054   0.72291   0.90146   0.00000  Uiso   1.00
H486   H     0.99957   0.60952   0.98306   0.00000  Uiso   1.00
H487   H     0.99660   0.80512   0.93607   0.00000  Uiso   1.00
H488   H     0.74442   0.72007   0.84459   0.00000  Uiso   1.00
H489   H     0.07974   0.48098   0.01666   0.00000  Uiso   1.00
H490   H     0.07348   0.89343   0.91757   0.00000  Uiso   1.00
H491   H     0.15551   0.56422   0.79612   0.00000  Uiso   1.00
H492   H     0.05610   0.57065   0.75354   0.00000  Uiso   1.00
H493   H     0.21512   0.45726   0.83515   0.00000  Uiso   1.00
H494   H     0.21215   0.65285   0.78816   0.00000  Uiso   1.00
H495   H     0.91937   0.59648   0.72453   0.00000  Uiso   1.00
H496   H     0.25470   0.35739   0.89661   0.00000  Uiso   1.00
H497   H     0.24843   0.76985   0.79752   0.00000  Uiso   1.00
O498   O     0.76281   0.66509   0.75908   0.00000  Uiso   1.00
O499   O     0.20275   0.35142   0.98484   0.00000  Uiso   1.00
O500   O     0.19452   0.89255   0.85484   0.00000  Uiso   1.00
N501   N     0.79924   0.69011   0.82217   0.00000  Uiso   1.00
N502   N     0.11274   0.46657   0.98305   0.00000  Uiso   1.00
N503   N     0.10689   0.85218   0.89042   0.00000  Uiso   1.00
N504   N     0.89338   0.62361   0.75757   0.00000  Uiso   1.00
N505   N     0.20688   0.40007   0.91845   0.00000  Uiso   1.00
N506   N     0.20103   0.78568   0.82582   0.00000  Uiso   1.00
C507   C     0.02662   0.31295   0.91453   0.00000  Uiso   1.00
C508   C     0.05293   0.33375   0.86879   0.00000  Uiso   1.00
C509   C     0.12410   0.33430   0.85060   0.00000  Uiso   1.00
C510   C     0.13705   0.35500   0.80829   0.00000  Uiso   1.00
C511   C     0.18645   0.38438   0.74081   0.00000  Uiso   1.00
C512   C     0.94777   0.37651   0.94285   0.00000  Uiso   1.00
C513   C     0.93052   0.41302   0.98693   0.00000  Uiso   1.00
C514   C     0.85495   0.46971   0.00697   0.00000  Uiso   1.00
C515   C     0.74108   0.56545   0.05449   0.00000  Uiso   1.00
C516   C     0.00818   0.25311   0.90264   0.00000  Uiso   1.00
C517   C     0.04170   0.18585   0.91292   0.00000  Uiso   1.00
C518   C     0.01697   0.13864   0.89911   0.00000  Uiso   1.00
C519   C     0.99689   0.04277   0.88419   0.00000  Uiso   1.00
C520   C     0.92307   0.34872   0.87174   0.00000  Uiso   1.00
C521   C     0.99669   0.35318   0.84554   0.00000  Uiso   1.00
C522   C     0.00954   0.37388   0.80325   0.00000  Uiso   1.00
C523   C     0.08071   0.37447   0.78500   0.00000  Uiso   1.00
C524   C     0.89153   0.39595   0.91961   0.00000  Uiso   1.00
C525   C     0.81597   0.45260   0.93959   0.00000  Uiso   1.00
C526   C     0.79861   0.48918   0.98369   0.00000  Uiso   1.00
C527   C     0.95194   0.27254   0.87939   0.00000  Uiso   1.00
C528   C     0.92715   0.22543   0.86557   0.00000  Uiso   1.00
C529   C     0.96063   0.15811   0.87583   0.00000  Uiso   1.00
H530   H     0.07040   0.29782   0.93263   0.00000  Uiso   1.00
H531   H     0.16760   0.31927   0.86860   0.00000  Uiso   1.00
H532   H     0.97406   0.39796   0.00491   0.00000  Uiso   1.00
H533   H     0.08522   0.17083   0.93091   0.00000  Uiso   1.00
H534   H     0.25056   0.35163   0.78737   0.00000  Uiso   1.00
H535   H     0.84245   0.51755   0.07480   0.00000  Uiso   1.00
H536   H     0.07686   0.03860   0.91874   0.00000  Uiso   1.00
H537   H     0.87928   0.36386   0.85364   0.00000  Uiso   1.00
H538   H     0.96601   0.38892   0.78527   0.00000  Uiso   1.00
H539   H     0.77246   0.46762   0.92159   0.00000  Uiso   1.00
H540   H     0.88363   0.24049   0.84758   0.00000  Uiso   1.00
H541   H     0.08694   0.40817   0.71974   0.00000  Uiso   1.00
H542   H     0.67882   0.57409   0.00717   0.00000  Uiso   1.00
H543   H     0.91324   0.09514   0.85111   0.00000  Uiso   1.00
O544   O     0.22923   0.39522   0.71001   0.00000  Uiso   1.00
O545   O     0.69381   0.61289   0.08712   0.00000  Uiso   1.00
O546   O     0.00135   0.98452   0.88237   0.00000  Uiso   1.00
N547   N     0.20016   0.36149   0.78083   0.00000  Uiso   1.00
N548   N     0.81860   0.51662   0.04956   0.00000  Uiso   1.00
N549   N     0.03774   0.06884   0.90367   0.00000  Uiso   1.00
N550   N     0.11211   0.39191   0.74444   0.00000  Uiso   1.00
N551   N     0.73056   0.54704   0.01317   0.00000  Uiso   1.00
N552   N     0.94970   0.09926   0.86728   0.00000  Uiso   1.00
