data_job_06768
_audit_creation_date              2018-12-19
_audit_creation_method            'Materials Studio'
_symmetry_space_group_name_H-M    'P1'
_symmetry_Int_Tables_number       1
_symmetry_cell_setting            triclinic
loop_
_symmetry_equiv_pos_as_xyz
  x,y,z
_cell_length_a                    19.6437
_cell_length_b                    17.3181
_cell_length_c                    22.9353
_cell_angle_alpha                 84.3008
_cell_angle_beta                  87.3589
_cell_angle_gamma                 86.3471
loop_
_atom_site_label
_atom_site_type_symbol
_atom_site_fract_x
_atom_site_fract_y
_atom_site_fract_z
_atom_site_U_iso_or_equiv
_atom_site_adp_type
_atom_site_occupancy
C1     C     0.14543   0.56039   0.69108   0.00000  Uiso   1.00
C2     C     0.20764   0.57787   0.72381   0.00000  Uiso   1.00
C3     C     0.22784   0.54054   0.77714   0.00000  Uiso   1.00
C4     C     0.28622   0.56501   0.79986   0.00000  Uiso   1.00
C5     C     0.37720   0.58309   0.85520   0.00000  Uiso   1.00
C6     C     0.10284   0.63703   0.68177   0.00000  Uiso   1.00
C7     C     0.03493   0.64944   0.69973   0.00000  Uiso   1.00
C8     C     0.00509   0.72371   0.68706   0.00000  Uiso   1.00
C9     C     0.93336   0.83363   0.67709   0.00000  Uiso   1.00
C10    C     0.17224   0.54156   0.63034   0.00000  Uiso   1.00
C11    C     0.16266   0.47371   0.60505   0.00000  Uiso   1.00
C12    C     0.19124   0.46761   0.54907   0.00000  Uiso   1.00
C13    C     0.22725   0.42929   0.45925   0.00000  Uiso   1.00
C14    C     0.21320   0.67022   0.63662   0.00000  Uiso   1.00
C15    C     0.24445   0.63752   0.69423   0.00000  Uiso   1.00
C16    C     0.30282   0.66205   0.71688   0.00000  Uiso   1.00
C17    C     0.32310   0.62477   0.77023   0.00000  Uiso   1.00
C18    C     0.13965   0.69668   0.65219   0.00000  Uiso   1.00
C19    C     0.10991   0.77095   0.63948   0.00000  Uiso   1.00
C20    C     0.04197   0.78347   0.65743   0.00000  Uiso   1.00
C21    C     0.20905   0.60121   0.60076   0.00000  Uiso   1.00
C22    C     0.23764   0.59522   0.54480   0.00000  Uiso   1.00
C23    C     0.22811   0.52737   0.51944   0.00000  Uiso   1.00
H24    H     0.11676   0.51396   0.71411   0.00000  Uiso   1.00
H25    H     0.19933   0.49438   0.80002   0.00000  Uiso   1.00
H26    H     0.00645   0.60326   0.72262   0.00000  Uiso   1.00
H27    H     0.13417   0.42756   0.62796   0.00000  Uiso   1.00
H28    H     0.30709   0.49901   0.88223   0.00000  Uiso   1.00
H29    H     0.90039   0.72858   0.71901   0.00000  Uiso   1.00
H30    H     0.16970   0.35808   0.51940   0.00000  Uiso   1.00
H31    H     0.24186   0.71667   0.61359   0.00000  Uiso   1.00
H32    H     0.33130   0.70822   0.69398   0.00000  Uiso   1.00
H33    H     0.13841   0.81710   0.61659   0.00000  Uiso   1.00
H34    H     0.26613   0.64139   0.52193   0.00000  Uiso   1.00
H35    H     0.41420   0.67257   0.79617   0.00000  Uiso   1.00
H36    H     0.00749   0.90214   0.63295   0.00000  Uiso   1.00
H37    H     0.27681   0.53163   0.43334   0.00000  Uiso   1.00
O38    O     0.41721   0.57659   0.89390   0.00000  Uiso   1.00
O39    O     0.88362   0.87778   0.67977   0.00000  Uiso   1.00
O40    O     0.23696   0.39168   0.41788   0.00000  Uiso   1.00
N41    N     0.32004   0.54101   0.85093   0.00000  Uiso   1.00
N42    N     0.93979   0.75565   0.69835   0.00000  Uiso   1.00
N43    N     0.19156   0.40926   0.51172   0.00000  Uiso   1.00
N44    N     0.37767   0.63440   0.80463   0.00000  Uiso   1.00
N45    N     0.99742   0.84904   0.65204   0.00000  Uiso   1.00
N46    N     0.24919   0.50265   0.46541   0.00000  Uiso   1.00
C47    C     0.57579   0.07169   0.52310   0.00000  Uiso   1.00
C48    C     0.62929   0.13170   0.50964   0.00000  Uiso   1.00
C49    C     0.66811   0.14287   0.45773   0.00000  Uiso   1.00
C50    C     0.71431   0.20075   0.45402   0.00000  Uiso   1.00
C51    C     0.79633   0.28706   0.42605   0.00000  Uiso   1.00
C52    C     0.59727   0.02304   0.57907   0.00000  Uiso   1.00
C53    C     0.60916   0.94285   0.58553   0.00000  Uiso   1.00
C54    C     0.62840   0.90927   0.64026   0.00000  Uiso   1.00
C55    C     0.66066   0.82688   0.72009   0.00000  Uiso   1.00
C56    C     0.50974   0.11714   0.53933   0.00000  Uiso   1.00
C57    C     0.44803   0.11606   0.51238   0.00000  Uiso   1.00
C58    C     0.39357   0.16168   0.53367   0.00000  Uiso   1.00
C59    C     0.28993   0.22540   0.55180   0.00000  Uiso   1.00
C60    C     0.58881   0.15462   0.60882   0.00000  Uiso   1.00
C61    C     0.63636   0.17675   0.55620   0.00000  Uiso   1.00
C62    C     0.68251   0.23463   0.55257   0.00000  Uiso   1.00
C63    C     0.72140   0.24588   0.50066   0.00000  Uiso   1.00
C64    C     0.60434   0.06809   0.62563   0.00000  Uiso   1.00
C65    C     0.62357   0.03461   0.68037   0.00000  Uiso   1.00
C66    C     0.63549   0.95439   0.68691   0.00000  Uiso   1.00
C67    C     0.51681   0.16219   0.58589   0.00000  Uiso   1.00
C68    C     0.46244   0.20782   0.60722   0.00000  Uiso   1.00
C69    C     0.40066   0.20681   0.58031   0.00000  Uiso   1.00
H70    H     0.57029   0.03661   0.48685   0.00000  Uiso   1.00
H71    H     0.66263   0.10799   0.42171   0.00000  Uiso   1.00
H72    H     0.60368   0.90801   0.54949   0.00000  Uiso   1.00
H73    H     0.44258   0.08119   0.47635   0.00000  Uiso   1.00
H74    H     0.76814   0.20698   0.37003   0.00000  Uiso   1.00
H75    H     0.64382   0.78530   0.63946   0.00000  Uiso   1.00
H76    H     0.30410   0.15048   0.48525   0.00000  Uiso   1.00
H77    H     0.59432   0.18969   0.64507   0.00000  Uiso   1.00
H78    H     0.68798   0.26948   0.58861   0.00000  Uiso   1.00
H79    H     0.62903   0.06949   0.71639   0.00000  Uiso   1.00
H80    H     0.46793   0.24268   0.64325   0.00000  Uiso   1.00
H81    H     0.78872   0.33804   0.50549   0.00000  Uiso   1.00
H82    H     0.66439   0.91636   0.77493   0.00000  Uiso   1.00
H83    H     0.32468   0.28155   0.62071   0.00000  Uiso   1.00
O84    O     0.83962   0.32222   0.39777   0.00000  Uiso   1.00
O85    O     0.67651   0.76898   0.75126   0.00000  Uiso   1.00
O86    O     0.23081   0.24811   0.54893   0.00000  Uiso   1.00
N87    N     0.76012   0.22688   0.40965   0.00000  Uiso   1.00
N88    N     0.64390   0.83264   0.66156   0.00000  Uiso   1.00
N89    N     0.32629   0.17404   0.51739   0.00000  Uiso   1.00
N90    N     0.77119   0.29741   0.48254   0.00000  Uiso   1.00
N91    N     0.65497   0.90317   0.73445   0.00000  Uiso   1.00
N92    N     0.33736   0.24457   0.59028   0.00000  Uiso   1.00
C93    C     0.38158   0.59951   0.17269   0.00000  Uiso   1.00
C94    C     0.39306   0.66991   0.20523   0.00000  Uiso   1.00
C95    C     0.34826   0.73478   0.20841   0.00000  Uiso   1.00
C96    C     0.36814   0.79299   0.24032   0.00000  Uiso   1.00
C97    C     0.37648   0.90331   0.28660   0.00000  Uiso   1.00
C98    C     0.44269   0.59139   0.12980   0.00000  Uiso   1.00
C99    C     0.43962   0.59021   0.06957   0.00000  Uiso   1.00
C100   C     0.50127   0.58231   0.03799   0.00000  Uiso   1.00
C101   C     0.58666   0.57065   0.96718   0.00000  Uiso   1.00
C102   C     0.38777   0.52905   0.21801   0.00000  Uiso   1.00
C103   C     0.33854   0.47544   0.23192   0.00000  Uiso   1.00
C104   C     0.35397   0.41504   0.27460   0.00000  Uiso   1.00
C105   C     0.35410   0.30659   0.34074   0.00000  Uiso   1.00
C106   C     0.49653   0.58755   0.22372   0.00000  Uiso   1.00
C107   C     0.45550   0.66341   0.23295   0.00000  Uiso   1.00
C108   C     0.47544   0.72154   0.26487   0.00000  Uiso   1.00
C109   C     0.43069   0.78648   0.26809   0.00000  Uiso   1.00
C110   C     0.50512   0.58489   0.15752   0.00000  Uiso   1.00
C111   C     0.56680   0.57697   0.12603   0.00000  Uiso   1.00
C112   C     0.56382   0.57580   0.06576   0.00000  Uiso   1.00
C113   C     0.45021   0.52254   0.24573   0.00000  Uiso   1.00
C114   C     0.46572   0.46221   0.28839   0.00000  Uiso   1.00
C115   C     0.41652   0.40852   0.30237   0.00000  Uiso   1.00
H116   H     0.33297   0.60457   0.15111   0.00000  Uiso   1.00
H117   H     0.29995   0.73979   0.18694   0.00000  Uiso   1.00
H118   H     0.39129   0.59524   0.04813   0.00000  Uiso   1.00
H119   H     0.29023   0.48049   0.21046   0.00000  Uiso   1.00
H120   H     0.29089   0.88685   0.23888   0.00000  Uiso   1.00
H121   H     0.48348   0.58203   0.94618   0.00000  Uiso   1.00
H122   H     0.27038   0.34005   0.28850   0.00000  Uiso   1.00
H123   H     0.54515   0.58248   0.24530   0.00000  Uiso   1.00
H124   H     0.52377   0.71649   0.28631   0.00000  Uiso   1.00
H125   H     0.61511   0.57194   0.14749   0.00000  Uiso   1.00
H126   H     0.51405   0.45719   0.30983   0.00000  Uiso   1.00
H127   H     0.47254   0.86794   0.31953   0.00000  Uiso   1.00
H128   H     0.66514   0.56312   0.02683   0.00000  Uiso   1.00
H129   H     0.45203   0.32115   0.36914   0.00000  Uiso   1.00
O130   O     0.36383   0.96596   0.30447   0.00000  Uiso   1.00
O131   O     0.61651   0.56603   0.92046   0.00000  Uiso   1.00
O132   O     0.33692   0.24857   0.36957   0.00000  Uiso   1.00
N133   N     0.33657   0.86400   0.25225   0.00000  Uiso   1.00
N134   N     0.51663   0.57903   0.97859   0.00000  Uiso   1.00
N135   N     0.31740   0.35279   0.29861   0.00000  Uiso   1.00
N136   N     0.43432   0.85383   0.29564   0.00000  Uiso   1.00
N137   N     0.61438   0.56885   0.02198   0.00000  Uiso   1.00
N138   N     0.41515   0.34261   0.34201   0.00000  Uiso   1.00
C139   C     0.48285   0.14919   0.00560   0.00000  Uiso   1.00
C140   C     0.53526   0.20012   0.02694   0.00000  Uiso   1.00
C141   C     0.54886   0.27455   0.00289   0.00000  Uiso   1.00
C142   C     0.59869   0.31151   0.02874   0.00000  Uiso   1.00
C143   C     0.67473   0.39613   0.05456   0.00000  Uiso   1.00
C144   C     0.43535   0.12803   0.05845   0.00000  Uiso   1.00
C145   C     0.36495   0.14182   0.06090   0.00000  Uiso   1.00
C146   C     0.33067   0.11809   0.11327   0.00000  Uiso   1.00
C147   C     0.25160   0.09072   0.18801   0.00000  Uiso   1.00
C148   C     0.52200   0.07370   0.99216   0.00000  Uiso   1.00
C149   C     0.52444   0.04181   0.93888   0.00000  Uiso   1.00
C150   C     0.56311   0.97233   0.93545   0.00000  Uiso   1.00
C151   C     0.61857   0.86062   0.90726   0.00000  Uiso   1.00
C152   C     0.54715   0.08249   0.09425   0.00000  Uiso   1.00
C153   C     0.57018   0.16389   0.07509   0.00000  Uiso   1.00
C154   C     0.62000   0.20075   0.10097   0.00000  Uiso   1.00
C155   C     0.63368   0.27522   0.07697   0.00000  Uiso   1.00
C156   C     0.47027   0.09180   0.10660   0.00000  Uiso   1.00
C157   C     0.43609   0.06803   0.15898   0.00000  Uiso   1.00
C158   C     0.36566   0.08179   0.16151   0.00000  Uiso   1.00
C159   C     0.55693   0.03747   0.04031   0.00000  Uiso   1.00
C160   C     0.59559   0.96802   0.03696   0.00000  Uiso   1.00
C161   C     0.59809   0.93603   0.98368   0.00000  Uiso   1.00
H162   H     0.45566   0.17739   0.96812   0.00000  Uiso   1.00
H163   H     0.52182   0.30257   0.96563   0.00000  Uiso   1.00
H164   H     0.33794   0.16985   0.02363   0.00000  Uiso   1.00
H165   H     0.49741   0.06986   0.90163   0.00000  Uiso   1.00
H166   H     0.61056   0.42538   0.98413   0.00000  Uiso   1.00
H167   H     0.22283   0.14553   0.10641   0.00000  Uiso   1.00
H168   H     0.55910   0.93467   0.84915   0.00000  Uiso   1.00
H169   H     0.57434   0.05428   0.13174   0.00000  Uiso   1.00
H170   H     0.64702   0.17270   0.13823   0.00000  Uiso   1.00
H171   H     0.46313   0.03999   0.19623   0.00000  Uiso   1.00
H172   H     0.62260   0.94000   0.07423   0.00000  Uiso   1.00
H173   H     0.71217   0.31999   0.12422   0.00000  Uiso   1.00
H174   H     0.32444   0.04012   0.24650   0.00000  Uiso   1.00
H175   H     0.66072   0.82927   0.98924   0.00000  Uiso   1.00
O176   O     0.70702   0.45282   0.05551   0.00000  Uiso   1.00
O177   O     0.19833   0.08564   0.21593   0.00000  Uiso   1.00
O178   O     0.63952   0.80901   0.87841   0.00000  Uiso   1.00
N179   N     0.62451   0.38432   0.01620   0.00000  Uiso   1.00
N180   N     0.26201   0.12268   0.13053   0.00000  Uiso   1.00
N181   N     0.57638   0.92554   0.89002   0.00000  Uiso   1.00
N182   N     0.67918   0.32761   0.09158   0.00000  Uiso   1.00
N183   N     0.31668   0.06597   0.20591   0.00000  Uiso   1.00
N184   N     0.63106   0.86883   0.96540   0.00000  Uiso   1.00
C185   C     0.04071   0.11145   0.70519   0.00000  Uiso   1.00
C186   C     0.09181   0.12130   0.75158   0.00000  Uiso   1.00
C187   C     0.15215   0.07646   0.76084   0.00000  Uiso   1.00
C188   C     0.19192   0.09471   0.80547   0.00000  Uiso   1.00
C189   C     0.27432   0.10075   0.87230   0.00000  Uiso   1.00
C190   C     0.03284   0.18991   0.66883   0.00000  Uiso   1.00
C191   C     0.04358   0.20276   0.60851   0.00000  Uiso   1.00
C192   C     0.03370   0.27878   0.58348   0.00000  Uiso   1.00
C193   C     0.02449   0.39134   0.52184   0.00000  Uiso   1.00
C194   C     0.97236   0.10001   0.73818   0.00000  Uiso   1.00
C195   C     0.93223   0.03728   0.73616   0.00000  Uiso   1.00
C196   C     0.87142   0.03762   0.76951   0.00000  Uiso   1.00
C197   C     0.76830   0.01059   0.81554   0.00000  Uiso   1.00
C198   C     0.00405   0.22360   0.76800   0.00000  Uiso   1.00
C199   C     0.07190   0.18221   0.78570   0.00000  Uiso   1.00
C200   C     0.11159   0.20053   0.83033   0.00000  Uiso   1.00
C201   C     0.17198   0.15573   0.83965   0.00000  Uiso   1.00
C202   C     0.01293   0.25083   0.70295   0.00000  Uiso   1.00
C203   C     0.00303   0.32684   0.67800   0.00000  Uiso   1.00
C204   C     0.01376   0.33980   0.61766   0.00000  Uiso   1.00
C205   C     0.95245   0.16093   0.77230   0.00000  Uiso   1.00
C206   C     0.89168   0.16136   0.80566   0.00000  Uiso   1.00
C207   C     0.85147   0.09864   0.80369   0.00000  Uiso   1.00
H208   H     0.05621   0.06404   0.67862   0.00000  Uiso   1.00
H209   H     0.16754   0.02933   0.73442   0.00000  Uiso   1.00
H210   H     0.05898   0.15561   0.58212   0.00000  Uiso   1.00
H211   H     0.94766   0.99016   0.70975   0.00000  Uiso   1.00
H212   H     0.28221   0.01773   0.81131   0.00000  Uiso   1.00
H213   H     0.05328   0.28400   0.49018   0.00000  Uiso   1.00
H214   H     0.81853   0.93511   0.75931   0.00000  Uiso   1.00
H215   H     0.98855   0.27103   0.79456   0.00000  Uiso   1.00
H216   H     0.09617   0.24767   0.85672   0.00000  Uiso   1.00
H217   H     0.98762   0.37396   0.70442   0.00000  Uiso   1.00
H218   H     0.87629   0.20851   0.83205   0.00000  Uiso   1.00
H219   H     0.22428   0.19495   0.91058   0.00000  Uiso   1.00
H220   H     0.99536   0.46122   0.58944   0.00000  Uiso   1.00
H221   H     0.76060   0.11233   0.85858   0.00000  Uiso   1.00
O222   O     0.32527   0.08726   0.89973   0.00000  Uiso   1.00
O223   O     0.02492   0.43660   0.47841   0.00000  Uiso   1.00
O224   O     0.71693   0.97886   0.83151   0.00000  Uiso   1.00
N225   N     0.25380   0.06263   0.82615   0.00000  Uiso   1.00
N226   N     0.03978   0.31158   0.52591   0.00000  Uiso   1.00
N227   N     0.82029   0.98541   0.77752   0.00000  Uiso   1.00
N228   N     0.22263   0.15799   0.87957   0.00000  Uiso   1.00
N229   N     0.00861   0.40695   0.57932   0.00000  Uiso   1.00
N230   N     0.78912   0.08077   0.83093   0.00000  Uiso   1.00
C231   C     0.94786   0.67997   0.06555   0.00000  Uiso   1.00
C232   C     0.93330   0.73707   0.11172   0.00000  Uiso   1.00
C233   C     0.89091   0.72550   0.16151   0.00000  Uiso   1.00
C234   C     0.88431   0.78474   0.19834   0.00000  Uiso   1.00
C235   C     0.85646   0.86300   0.27196   0.00000  Uiso   1.00
C236   C     0.02520   0.66487   0.06189   0.00000  Uiso   1.00
C237   C     0.06007   0.59258   0.06976   0.00000  Uiso   1.00
C238   C     0.13084   0.59104   0.06462   0.00000  Uiso   1.00
C239   C     0.24567   0.55720   0.06083   0.00000  Uiso   1.00
C240   C     0.92873   0.72416   0.00718   0.00000  Uiso   1.00
C241   C     0.88250   0.70172   0.96906   0.00000  Uiso   1.00
C242   C     0.87205   0.75009   0.91786   0.00000  Uiso   1.00
C243   C     0.83708   0.80830   0.82913   0.00000  Uiso   1.00
C244   C     0.01153   0.80575   0.04241   0.00000  Uiso   1.00
C245   C     0.96789   0.80539   0.09915   0.00000  Uiso   1.00
C246   C     0.96135   0.86467   0.13591   0.00000  Uiso   1.00
C247   C     0.91895   0.85319   0.18574   0.00000  Uiso   1.00
C248   C     0.05979   0.73319   0.04931   0.00000  Uiso   1.00
C249   C     0.13052   0.73175   0.04416   0.00000  Uiso   1.00
C250   C     0.16549   0.65949   0.05203   0.00000  Uiso   1.00
C251   C     0.96331   0.79248   0.99461   0.00000  Uiso   1.00
C252   C     0.95294   0.84089   0.94346   0.00000  Uiso   1.00
C253   C     0.90669   0.81853   0.90526   0.00000  Uiso   1.00
H254   H     0.92095   0.62678   0.07534   0.00000  Uiso   1.00
H255   H     0.86416   0.67262   0.17123   0.00000  Uiso   1.00
H256   H     0.03330   0.53972   0.07948   0.00000  Uiso   1.00
H257   H     0.85574   0.64885   0.97880   0.00000  Uiso   1.00
H258   H     0.81647   0.75356   0.27201   0.00000  Uiso   1.00
H259   H     0.17311   0.47334   0.07854   0.00000  Uiso   1.00
H260   H     0.79870   0.70345   0.86623   0.00000  Uiso   1.00
H261   H     0.03846   0.85895   0.03262   0.00000  Uiso   1.00
H262   H     0.98812   0.91753   0.12617   0.00000  Uiso   1.00
H263   H     0.15726   0.78464   0.03442   0.00000  Uiso   1.00
H264   H     0.97971   0.89376   0.93374   0.00000  Uiso   1.00
H265   H     0.91708   0.95234   0.23544   0.00000  Uiso   1.00
H266   H     0.27372   0.67212   0.04197   0.00000  Uiso   1.00
H267   H     0.89932   0.90223   0.82966   0.00000  Uiso   1.00
O268   O     0.83156   0.88729   0.31605   0.00000  Uiso   1.00
O269   O     0.29945   0.51965   0.06221   0.00000  Uiso   1.00
O270   O     0.80824   0.82155   0.78367   0.00000  Uiso   1.00
N271   N     0.84705   0.79231   0.25056   0.00000  Uiso   1.00
N272   N     0.18048   0.53032   0.06969   0.00000  Uiso   1.00
N273   N     0.83046   0.74544   0.87119   0.00000  Uiso   1.00
N274   N     0.90118   0.89927   0.23088   0.00000  Uiso   1.00
N275   N     0.23462   0.63729   0.05001   0.00000  Uiso   1.00
N276   N     0.88460   0.85240   0.85151   0.00000  Uiso   1.00
C277   C     0.64365   0.34099   0.27056   0.00000  Uiso   1.00
C278   C     0.58265   0.32775   0.23477   0.00000  Uiso   1.00
C279   C     0.56065   0.37461   0.18580   0.00000  Uiso   1.00
C280   C     0.50380   0.35258   0.15920   0.00000  Uiso   1.00
C281   C     0.41420   0.34212   0.10033   0.00000  Uiso   1.00
C282   C     0.68992   0.26685   0.27068   0.00000  Uiso   1.00
C283   C     0.75812   0.26251   0.25191   0.00000  Uiso   1.00
C284   C     0.79158   0.18921   0.25555   0.00000  Uiso   1.00
C285   C     0.86854   0.08421   0.25247   0.00000  Uiso   1.00
C286   C     0.61603   0.34447   0.33353   0.00000  Uiso   1.00
C287   C     0.62211   0.40537   0.36761   0.00000  Uiso   1.00
C288   C     0.59337   0.39742   0.42418   0.00000  Uiso   1.00
C289   C     0.55559   0.41293   0.51868   0.00000  Uiso   1.00
C290   C     0.58182   0.21856   0.31042   0.00000  Uiso   1.00
C291   C     0.54906   0.26125   0.25643   0.00000  Uiso   1.00
C292   C     0.49224   0.23915   0.22990   0.00000  Uiso   1.00
C293   C     0.47015   0.28596   0.18090   0.00000  Uiso   1.00
C294   C     0.65634   0.20036   0.29234   0.00000  Uiso   1.00
C295   C     0.68971   0.12705   0.29601   0.00000  Uiso   1.00
C296   C     0.75793   0.12259   0.27725   0.00000  Uiso   1.00
C297   C     0.58244   0.27797   0.35519   0.00000  Uiso   1.00
C298   C     0.55369   0.26992   0.41172   0.00000  Uiso   1.00
C299   C     0.55972   0.33080   0.44587   0.00000  Uiso   1.00
H300   H     0.66981   0.39276   0.25370   0.00000  Uiso   1.00
H301   H     0.58666   0.42606   0.16905   0.00000  Uiso   1.00
H302   H     0.78410   0.31398   0.23516   0.00000  Uiso   1.00
H303   H     0.64810   0.45682   0.35084   0.00000  Uiso   1.00
H304   H     0.47967   0.43364   0.08474   0.00000  Uiso   1.00
H305   H     0.89599   0.19731   0.22415   0.00000  Uiso   1.00
H306   H     0.60922   0.49853   0.46809   0.00000  Uiso   1.00
H307   H     0.55567   0.16679   0.32728   0.00000  Uiso   1.00
H308   H     0.46626   0.18769   0.24667   0.00000  Uiso   1.00
H309   H     0.66370   0.07561   0.31278   0.00000  Uiso   1.00
H310   H     0.52770   0.21845   0.42846   0.00000  Uiso   1.00
H311   H     0.38196   0.24016   0.14773   0.00000  Uiso   1.00
H312   H     0.79828   0.00383   0.28715   0.00000  Uiso   1.00
H313   H     0.51150   0.30505   0.53109   0.00000  Uiso   1.00
O314   O     0.37407   0.35471   0.06186   0.00000  Uiso   1.00
O315   O     0.92026   0.04466   0.24478   0.00000  Uiso   1.00
O316   O     0.54403   0.43985   0.56482   0.00000  Uiso   1.00
N317   N     0.46894   0.38524   0.11063   0.00000  Uiso   1.00
N318   N     0.85817   0.16429   0.24096   0.00000  Uiso   1.00
N319   N     0.59008   0.44589   0.46904   0.00000  Uiso   1.00
N320   N     0.41636   0.28113   0.14453   0.00000  Uiso   1.00
N321   N     0.80559   0.06018   0.27486   0.00000  Uiso   1.00
N322   N     0.53750   0.34179   0.50293   0.00000  Uiso   1.00
C323   C     0.21341   0.78629   0.39685   0.00000  Uiso   1.00
C324   C     0.16140   0.73182   0.42641   0.00000  Uiso   1.00
C325   C     0.12010   0.74540   0.47552   0.00000  Uiso   1.00
C326   C     0.07584   0.68842   0.49585   0.00000  Uiso   1.00
C327   C     0.99548   0.61422   0.54596   0.00000  Uiso   1.00
C328   C     0.19379   0.80231   0.33304   0.00000  Uiso   1.00
C329   C     0.17974   0.87515   0.30364   0.00000  Uiso   1.00
C330   C     0.16277   0.87750   0.24536   0.00000  Uiso   1.00
C331   C     0.13275   0.91273   0.15050   0.00000  Uiso   1.00
C332   C     0.28150   0.73885   0.39601   0.00000  Uiso   1.00
C333   C     0.34122   0.75835   0.41954   0.00000  Uiso   1.00
C334   C     0.39809   0.70728   0.41427   0.00000  Uiso   1.00
C335   C     0.50426   0.64399   0.41718   0.00000  Uiso   1.00
C336   C     0.20825   0.66095   0.34564   0.00000  Uiso   1.00
C337   C     0.15859   0.66374   0.39859   0.00000  Uiso   1.00
C338   C     0.11439   0.60672   0.41885   0.00000  Uiso   1.00
C339   C     0.07304   0.62021   0.46798   0.00000  Uiso   1.00
C340   C     0.19099   0.73423   0.30522   0.00000  Uiso   1.00
C341   C     0.17403   0.73647   0.24697   0.00000  Uiso   1.00
C342   C     0.15996   0.80929   0.21749   0.00000  Uiso   1.00
C343   C     0.27870   0.67077   0.36819   0.00000  Uiso   1.00
C344   C     0.33550   0.61967   0.36288   0.00000  Uiso   1.00
C345   C     0.39528   0.63908   0.38640   0.00000  Uiso   1.00
H346   H     0.21560   0.83930   0.41851   0.00000  Uiso   1.00
H347   H     0.12228   0.79810   0.49703   0.00000  Uiso   1.00
H348   H     0.18192   0.92783   0.32517   0.00000  Uiso   1.00
H349   H     0.34337   0.81104   0.44106   0.00000  Uiso   1.00
H350   H     0.01757   0.72241   0.57181   0.00000  Uiso   1.00
H351   H     0.14335   0.99595   0.20943   0.00000  Uiso   1.00
H352   H     0.48379   0.74969   0.45381   0.00000  Uiso   1.00
H353   H     0.20607   0.60794   0.32398   0.00000  Uiso   1.00
H354   H     0.11223   0.55404   0.39732   0.00000  Uiso   1.00
H355   H     0.17187   0.68377   0.22546   0.00000  Uiso   1.00
H356   H     0.33331   0.56699   0.34135   0.00000  Uiso   1.00
H357   H     0.00941   0.52433   0.49087   0.00000  Uiso   1.00
H358   H     0.13520   0.79787   0.12850   0.00000  Uiso   1.00
H359   H     0.47563   0.55160   0.37288   0.00000  Uiso   1.00
O360   O     0.95192   0.59210   0.58128   0.00000  Uiso   1.00
O361   O     0.11695   0.95097   0.10586   0.00000  Uiso   1.00
O362   O     0.56359   0.62788   0.42647   0.00000  Uiso   1.00
N363   N     0.02854   0.68318   0.54270   0.00000  Uiso   1.00
N364   N     0.14613   0.93892   0.20391   0.00000  Uiso   1.00
N365   N     0.46441   0.70870   0.43236   0.00000  Uiso   1.00
N366   N     0.02415   0.57659   0.49915   0.00000  Uiso   1.00
N367   N     0.14174   0.83233   0.16036   0.00000  Uiso   1.00
N368   N     0.46002   0.60211   0.38881   0.00000  Uiso   1.00
C369   C     0.41316   0.31516   0.79793   0.00000  Uiso   1.00
C370   C     0.40375   0.23843   0.77279   0.00000  Uiso   1.00
C371   C     0.45002   0.17431   0.77567   0.00000  Uiso   1.00
C372   C     0.43193   0.10964   0.75002   0.00000  Uiso   1.00
C373   C     0.42676   0.99055   0.71520   0.00000  Uiso   1.00
C374   C     0.35152   0.32832   0.83942   0.00000  Uiso   1.00
C375   C     0.35387   0.33977   0.89831   0.00000  Uiso   1.00
C376   C     0.29181   0.35078   0.92874   0.00000  Uiso   1.00
C377   C     0.20554   0.37130   0.99735   0.00000  Uiso   1.00
C378   C     0.40583   0.37816   0.74686   0.00000  Uiso   1.00
C379   C     0.45383   0.43155   0.72793   0.00000  Uiso   1.00
C380   C     0.43749   0.48454   0.68043   0.00000  Uiso   1.00
C381   C     0.43555   0.58245   0.60532   0.00000  Uiso   1.00
C382   C     0.29878   0.31434   0.74725   0.00000  Uiso   1.00
C383   C     0.34163   0.23799   0.74527   0.00000  Uiso   1.00
C384   C     0.32347   0.17340   0.71960   0.00000  Uiso   1.00
C385   C     0.36970   0.10919   0.72244   0.00000  Uiso   1.00
C386   C     0.28939   0.32787   0.81190   0.00000  Uiso   1.00
C387   C     0.22732   0.33887   0.84224   0.00000  Uiso   1.00
C388   C     0.22957   0.35033   0.90117   0.00000  Uiso   1.00
C389   C     0.34370   0.37772   0.71933   0.00000  Uiso   1.00
C390   C     0.32728   0.43064   0.67185   0.00000  Uiso   1.00
C391   C     0.37525   0.48409   0.65286   0.00000  Uiso   1.00
H392   H     0.46153   0.31551   0.81937   0.00000  Uiso   1.00
H393   H     0.49809   0.17467   0.79698   0.00000  Uiso   1.00
H394   H     0.40195   0.34012   0.91960   0.00000  Uiso   1.00
H395   H     0.50190   0.43188   0.74924   0.00000  Uiso   1.00
H396   H     0.51121   0.01832   0.76005   0.00000  Uiso   1.00
H397   H     0.30850   0.36721   0.01859   0.00000  Uiso   1.00
H398   H     0.51927   0.56070   0.65935   0.00000  Uiso   1.00
H399   H     0.25041   0.31400   0.72582   0.00000  Uiso   1.00
H400   H     0.27539   0.17307   0.69830   0.00000  Uiso   1.00
H401   H     0.17925   0.33852   0.82092   0.00000  Uiso   1.00
H402   H     0.27920   0.43028   0.65056   0.00000  Uiso   1.00
H403   H     0.33046   0.01702   0.67995   0.00000  Uiso   1.00
H404   H     0.12775   0.36591   0.93850   0.00000  Uiso   1.00
H405   H     0.33852   0.55940   0.57926   0.00000  Uiso   1.00
O406   O     0.44106   0.92499   0.70360   0.00000  Uiso   1.00
O407   O     0.17512   0.38273   0.04280   0.00000  Uiso   1.00
O408   O     0.45164   0.63658   0.57149   0.00000  Uiso   1.00
N409   N     0.46525   0.03736   0.74496   0.00000  Uiso   1.00
N410   N     0.27573   0.36354   0.98669   0.00000  Uiso   1.00
N411   N     0.47277   0.54445   0.65084   0.00000  Uiso   1.00
N412   N     0.36799   0.03666   0.70186   0.00000  Uiso   1.00
N413   N     0.17847   0.36284   0.94359   0.00000  Uiso   1.00
N414   N     0.37551   0.54375   0.60775   0.00000  Uiso   1.00
C415   C     0.23248   0.81343   0.86342   0.00000  Uiso   1.00
C416   C     0.18118   0.75039   0.87219   0.00000  Uiso   1.00
C417   C     0.19466   0.67449   0.89618   0.00000  Uiso   1.00
C418   C     0.14087   0.62571   0.90044   0.00000  Uiso   1.00
C419   C     0.07110   0.52382   0.91695   0.00000  Uiso   1.00
C420   C     0.23292   0.84208   0.79835   0.00000  Uiso   1.00
C421   C     0.28991   0.84327   0.76025   0.00000  Uiso   1.00
C422   C     0.27967   0.87168   0.70236   0.00000  Uiso   1.00
C423   C     0.29025   0.91219   0.60423   0.00000  Uiso   1.00
C424   C     0.20143   0.88094   0.89566   0.00000  Uiso   1.00
C425   C     0.23195   0.91484   0.93938   0.00000  Uiso   1.00
C426   C     0.19521   0.97598   0.96340   0.00000  Uiso   1.00
C427   C     0.15689   0.07684   0.01636   0.00000  Uiso   1.00
C428   C     0.11298   0.86177   0.82835   0.00000  Uiso   1.00
C429   C     0.11628   0.77665   0.85314   0.00000  Uiso   1.00
C430   C     0.06245   0.72797   0.85738   0.00000  Uiso   1.00
C431   C     0.07584   0.65201   0.88136   0.00000  Uiso   1.00
C432   C     0.16802   0.86833   0.77930   0.00000  Uiso   1.00
C433   C     0.15770   0.89675   0.72145   0.00000  Uiso   1.00
C434   C     0.21465   0.89798   0.68328   0.00000  Uiso   1.00
C435   C     0.13653   0.90720   0.87662   0.00000  Uiso   1.00
C436   C     0.09974   0.96831   0.90058   0.00000  Uiso   1.00
C437   C     0.13018   0.00229   0.94432   0.00000  Uiso   1.00
H438   H     0.28301   0.79299   0.87824   0.00000  Uiso   1.00
H439   H     0.24490   0.65419   0.91091   0.00000  Uiso   1.00
H440   H     0.34013   0.82296   0.77501   0.00000  Uiso   1.00
H441   H     0.28218   0.89451   0.95411   0.00000  Uiso   1.00
H442   H     0.17402   0.51188   0.93871   0.00000  Uiso   1.00
H443   H     0.37483   0.86775   0.65216   0.00000  Uiso   1.00
H444   H     0.25263   0.01863   0.02982   0.00000  Uiso   1.00
H445   H     0.06245   0.88221   0.81351   0.00000  Uiso   1.00
H446   H     0.01223   0.74830   0.84263   0.00000  Uiso   1.00
H447   H     0.10746   0.91707   0.70673   0.00000  Uiso   1.00
H448   H     0.04951   0.98861   0.88582   0.00000  Uiso   1.00
H449   H     0.98518   0.58826   0.88329   0.00000  Uiso   1.00
H450   H     0.18600   0.94414   0.59673   0.00000  Uiso   1.00
H451   H     0.06379   0.09501   0.97440   0.00000  Uiso   1.00
O452   O     0.05055   0.46037   0.93130   0.00000  Uiso   1.00
O453   O     0.31401   0.92727   0.55536   0.00000  Uiso   1.00
O454   O     0.15368   0.12521   0.05084   0.00000  Uiso   1.00
N455   N     0.13647   0.54824   0.92168   0.00000  Uiso   1.00
N456   N     0.32421   0.88094   0.65377   0.00000  Uiso   1.00
N457   N     0.20997   0.02201   0.00684   0.00000  Uiso   1.00
N458   N     0.03485   0.58934   0.89186   0.00000  Uiso   1.00
N459   N     0.22260   0.92204   0.62395   0.00000  Uiso   1.00
N460   N     0.10835   0.06311   0.97702   0.00000  Uiso   1.00
C461   C     0.64700   0.86371   0.19928   0.00000  Uiso   1.00
C462   C     0.58921   0.84620   0.16134   0.00000  Uiso   1.00
C463   C     0.52317   0.87970   0.16343   0.00000  Uiso   1.00
C464   C     0.47778   0.85591   0.12512   0.00000  Uiso   1.00
C465   C     0.38500   0.83710   0.07214   0.00000  Uiso   1.00
C466   C     0.67186   0.78585   0.23049   0.00000  Uiso   1.00
C467   C     0.67532   0.76863   0.29072   0.00000  Uiso   1.00
C468   C     0.69952   0.69404   0.31062   0.00000  Uiso   1.00
C469   C     0.73510   0.58157   0.36501   0.00000  Uiso   1.00
C470   C     0.70517   0.88928   0.15686   0.00000  Uiso   1.00
C471   C     0.73665   0.95901   0.15518   0.00000  Uiso   1.00
C472   C     0.78891   0.97148   0.11310   0.00000  Uiso   1.00
C473   C     0.87621   0.01959   0.05315   0.00000  Uiso   1.00
C474   C     0.68384   0.76186   0.12753   0.00000  Uiso   1.00
C475   C     0.60922   0.79087   0.12236   0.00000  Uiso   1.00
C476   C     0.56393   0.76702   0.08404   0.00000  Uiso   1.00
C477   C     0.49783   0.80049   0.08607   0.00000  Uiso   1.00
C478   C     0.69187   0.73053   0.19152   0.00000  Uiso   1.00
C479   C     0.71608   0.65595   0.21133   0.00000  Uiso   1.00
C480   C     0.71957   0.63862   0.27158   0.00000  Uiso   1.00
C481   C     0.72518   0.83396   0.11788   0.00000  Uiso   1.00
C482   C     0.77741   0.84632   0.07579   0.00000  Uiso   1.00
C483   C     0.80896   0.91606   0.07405   0.00000  Uiso   1.00
H484   H     0.63142   0.90678   0.22963   0.00000  Uiso   1.00
H485   H     0.50770   0.92251   0.19360   0.00000  Uiso   1.00
H486   H     0.65983   0.81146   0.32087   0.00000  Uiso   1.00
H487   H     0.72115   0.00181   0.18535   0.00000  Uiso   1.00
H488   H     0.37935   0.91553   0.13648   0.00000  Uiso   1.00
H489   H     0.70015   0.68139   0.40484   0.00000  Uiso   1.00
H490   H     0.82946   0.08277   0.11907   0.00000  Uiso   1.00
H491   H     0.69942   0.71879   0.09718   0.00000  Uiso   1.00
H492   H     0.57943   0.72421   0.05388   0.00000  Uiso   1.00
H493   H     0.73156   0.61315   0.18116   0.00000  Uiso   1.00
H494   H     0.79288   0.80350   0.04564   0.00000  Uiso   1.00
H495   H     0.43757   0.75458   0.02308   0.00000  Uiso   1.00
H496   H     0.75838   0.52043   0.29144   0.00000  Uiso   1.00
H497   H     0.88768   0.92182   0.00567   0.00000  Uiso   1.00
O498   O     0.32829   0.84200   0.05370   0.00000  Uiso   1.00
O499   O     0.74919   0.53481   0.40578   0.00000  Uiso   1.00
O500   O     0.91883   0.06142   0.03085   0.00000  Uiso   1.00
N501   N     0.40952   0.87692   0.11572   0.00000  Uiso   1.00
N502   N     0.70944   0.65800   0.36663   0.00000  Uiso   1.00
N503   N     0.83035   0.03326   0.09947   0.00000  Uiso   1.00
N504   N     0.44085   0.79032   0.05470   0.00000  Uiso   1.00
N505   N     0.74077   0.57140   0.30561   0.00000  Uiso   1.00
N506   N     0.86167   0.94665   0.03845   0.00000  Uiso   1.00
C507   C     0.79080   0.38259   0.81143   0.00000  Uiso   1.00
C508   C     0.78789   0.32321   0.76689   0.00000  Uiso   1.00
C509   C     0.83479   0.31299   0.72076   0.00000  Uiso   1.00
C510   C     0.82309   0.25556   0.68489   0.00000  Uiso   1.00
C511   C     0.82717   0.17031   0.61422   0.00000  Uiso   1.00
C512   C     0.72312   0.43082   0.80837   0.00000  Uiso   1.00
C513   C     0.71555   0.51107   0.79713   0.00000  Uiso   1.00
C514   C     0.64932   0.54423   0.79618   0.00000  Uiso   1.00
C515   C     0.55283   0.62604   0.78995   0.00000  Uiso   1.00
C516   C     0.79000   0.33633   0.87157   0.00000  Uiso   1.00
C517   C     0.83865   0.33714   0.91347   0.00000  Uiso   1.00
C518   C     0.82871   0.29076   0.96574   0.00000  Uiso   1.00
C519   C     0.83607   0.22586   0.05763   0.00000  Uiso   1.00
C520   C     0.68664   0.29879   0.82976   0.00000  Uiso   1.00
C521   C     0.73132   0.27770   0.77685   0.00000  Uiso   1.00
C522   C     0.71954   0.22027   0.74105   0.00000  Uiso   1.00
C523   C     0.76641   0.20996   0.69487   0.00000  Uiso   1.00
C524   C     0.66654   0.38530   0.81833   0.00000  Uiso   1.00
C525   C     0.60031   0.41835   0.81741   0.00000  Uiso   1.00
C526   C     0.59264   0.49863   0.80616   0.00000  Uiso   1.00
C527   C     0.73342   0.29081   0.88153   0.00000  Uiso   1.00
C528   C     0.72341   0.24442   0.93375   0.00000  Uiso   1.00
C529   C     0.77204   0.24516   0.97572   0.00000  Uiso   1.00
H530   H     0.83484   0.41804   0.80367   0.00000  Uiso   1.00
H531   H     0.87856   0.34823   0.71307   0.00000  Uiso   1.00
H532   H     0.75934   0.54628   0.78943   0.00000  Uiso   1.00
H533   H     0.88242   0.37237   0.90575   0.00000  Uiso   1.00
H534   H     0.90207   0.25078   0.61699   0.00000  Uiso   1.00
H535   H     0.65069   0.66838   0.77802   0.00000  Uiso   1.00
H536   H     0.91023   0.30168   0.02331   0.00000  Uiso   1.00
H537   H     0.64259   0.26335   0.83752   0.00000  Uiso   1.00
H538   H     0.67576   0.18505   0.74877   0.00000  Uiso   1.00
H539   H     0.55654   0.38311   0.82512   0.00000  Uiso   1.00
H540   H     0.67962   0.20920   0.94145   0.00000  Uiso   1.00
H541   H     0.73746   0.11834   0.64597   0.00000  Uiso   1.00
H542   H     0.48608   0.53595   0.80700   0.00000  Uiso   1.00
H543   H     0.74562   0.16924   0.05228   0.00000  Uiso   1.00
O544   O     0.84504   0.13587   0.57247   0.00000  Uiso   1.00
O545   O     0.51524   0.68374   0.78375   0.00000  Uiso   1.00
O546   O     0.85576   0.20263   0.10556   0.00000  Uiso   1.00
N547   N     0.85878   0.23035   0.63600   0.00000  Uiso   1.00
N548   N     0.62376   0.62078   0.78654   0.00000  Uiso   1.00
N549   N     0.86640   0.27795   0.01587   0.00000  Uiso   1.00
N550   N     0.77021   0.15908   0.65159   0.00000  Uiso   1.00
N551   N     0.53518   0.54951   0.80213   0.00000  Uiso   1.00
N552   N     0.77783   0.20669   0.03146   0.00000  Uiso   1.00
