data_job_04055
_audit_creation_date              2018-12-19
_audit_creation_method            'Materials Studio'
_symmetry_space_group_name_H-M    'P1'
_symmetry_Int_Tables_number       1
_symmetry_cell_setting            triclinic
loop_
_symmetry_equiv_pos_as_xyz
  x,y,z
_cell_length_a                    23.9737
_cell_length_b                    23.9737
_cell_length_c                    17.9356
_cell_angle_alpha                 90.0000
_cell_angle_beta                  90.0000
_cell_angle_gamma                 120.0000
loop_
_atom_site_label
_atom_site_type_symbol
_atom_site_fract_x
_atom_site_fract_y
_atom_site_fract_z
_atom_site_U_iso_or_equiv
_atom_site_adp_type
_atom_site_occupancy
C1     C     0.67630   0.02035   0.21607   0.00000  Uiso   1.00
C2     C     0.64181   0.05674   0.19382   0.00000  Uiso   1.00
C3     C     0.66960   0.12319   0.18981   0.00000  Uiso   1.00
C4     C     0.62991   0.14711   0.16833   0.00000  Uiso   1.00
C5     C     0.58626   0.20987   0.13638   0.00000  Uiso   1.00
C6     C     0.63846   0.97756   0.28159   0.00000  Uiso   1.00
C7     C     0.66344   0.97743   0.35136   0.00000  Uiso   1.00
C8     C     0.62093   0.93468   0.40376   0.00000  Uiso   1.00
C9     C     0.57209   0.87448   0.50805   0.00000  Uiso   1.00
C10    C     0.66646   0.97487   0.15158   0.00000  Uiso   1.00
C11    C     0.71498   0.97247   0.11205   0.00000  Uiso   1.00
C12    C     0.69606   0.92745   0.05501   0.00000  Uiso   1.00
C13    C     0.69069   0.86307   0.95744   0.00000  Uiso   1.00
C14    C     0.55641   0.94464   0.18509   0.00000  Uiso   1.00
C15    C     0.57669   0.01562   0.17699   0.00000  Uiso   1.00
C16    C     0.53695   0.03944   0.15552   0.00000  Uiso   1.00
C17    C     0.56468   0.10592   0.15147   0.00000  Uiso   1.00
C18    C     0.57334   0.93644   0.26476   0.00000  Uiso   1.00
C19    C     0.53079   0.89368   0.31707   0.00000  Uiso   1.00
C20    C     0.55569   0.89349   0.38690   0.00000  Uiso   1.00
C21    C     0.60134   0.93375   0.13475   0.00000  Uiso   1.00
C22    C     0.58234   0.88872   0.07776   0.00000  Uiso   1.00
C23    C     0.63082   0.88625   0.03815   0.00000  Uiso   1.00
H24    H     0.72700   0.05236   0.22918   0.00000  Uiso   1.00
H25    H     0.72000   0.15500   0.20284   0.00000  Uiso   1.00
H26    H     0.71383   0.00925   0.36436   0.00000  Uiso   1.00
H27    H     0.76537   0.00430   0.12509   0.00000  Uiso   1.00
H28    H     0.68351   0.25067   0.16624   0.00000  Uiso   1.00
H29    H     0.67052   0.94334   0.50681   0.00000  Uiso   1.00
H30    H     0.77920   0.93288   0.00226   0.00000  Uiso   1.00
H31    H     0.50571   0.91263   0.17198   0.00000  Uiso   1.00
H32    H     0.48656   0.00761   0.14250   0.00000  Uiso   1.00
H33    H     0.48040   0.86186   0.30402   0.00000  Uiso   1.00
H34    H     0.53194   0.85690   0.06475   0.00000  Uiso   1.00
H35    H     0.49404   0.13104   0.11727   0.00000  Uiso   1.00
H36    H     0.48106   0.82370   0.45784   0.00000  Uiso   1.00
H37    H     0.58974   0.81325   0.95329   0.00000  Uiso   1.00
O38    O     0.58017   0.25585   0.12342   0.00000  Uiso   1.00
O39    O     0.56314   0.85264   0.57022   0.00000  Uiso   1.00
O40    O     0.70572   0.83893   0.90826   0.00000  Uiso   1.00
N41    N     0.64155   0.20948   0.15875   0.00000  Uiso   1.00
N42    N     0.62941   0.92215   0.47716   0.00000  Uiso   1.00
N43    N     0.73101   0.91236   0.00546   0.00000  Uiso   1.00
N44    N     0.53960   0.14510   0.13239   0.00000  Uiso   1.00
N45    N     0.52746   0.85778   0.45081   0.00000  Uiso   1.00
N46    N     0.62906   0.84799   0.97911   0.00000  Uiso   1.00
C47    C     0.97965   0.65595   0.21607   0.00000  Uiso   1.00
C48    C     0.94326   0.58507   0.19382   0.00000  Uiso   1.00
C49    C     0.87681   0.54640   0.18981   0.00000  Uiso   1.00
C50    C     0.85289   0.48280   0.16833   0.00000  Uiso   1.00
C51    C     0.79013   0.37639   0.13638   0.00000  Uiso   1.00
C52    C     0.02244   0.66090   0.28159   0.00000  Uiso   1.00
C53    C     0.02257   0.68601   0.35136   0.00000  Uiso   1.00
C54    C     0.06532   0.68625   0.40376   0.00000  Uiso   1.00
C55    C     0.12552   0.69761   0.50805   0.00000  Uiso   1.00
C56    C     0.02513   0.69159   0.15158   0.00000  Uiso   1.00
C57    C     0.02753   0.74252   0.11205   0.00000  Uiso   1.00
C58    C     0.07255   0.76861   0.05501   0.00000  Uiso   1.00
C59    C     0.13693   0.82762   0.95744   0.00000  Uiso   1.00
C60    C     0.05536   0.61176   0.18509   0.00000  Uiso   1.00
C61    C     0.98438   0.56107   0.17699   0.00000  Uiso   1.00
C62    C     0.96056   0.49751   0.15552   0.00000  Uiso   1.00
C63    C     0.89408   0.45876   0.15147   0.00000  Uiso   1.00
C64    C     0.06356   0.63690   0.26476   0.00000  Uiso   1.00
C65    C     0.10632   0.63711   0.31707   0.00000  Uiso   1.00
C66    C     0.10651   0.66220   0.38690   0.00000  Uiso   1.00
C67    C     0.06625   0.66759   0.13475   0.00000  Uiso   1.00
C68    C     0.11128   0.69362   0.07776   0.00000  Uiso   1.00
C69    C     0.11375   0.74457   0.03815   0.00000  Uiso   1.00
H70    H     0.94764   0.67464   0.22918   0.00000  Uiso   1.00
H71    H     0.84500   0.56499   0.20284   0.00000  Uiso   1.00
H72    H     0.99075   0.70458   0.36436   0.00000  Uiso   1.00
H73    H     0.99570   0.76108   0.12509   0.00000  Uiso   1.00
H74    H     0.74933   0.43284   0.16624   0.00000  Uiso   1.00
H75    H     0.05666   0.72719   0.50681   0.00000  Uiso   1.00
H76    H     0.06712   0.84632   0.00226   0.00000  Uiso   1.00
H77    H     0.08737   0.59308   0.17198   0.00000  Uiso   1.00
H78    H     0.99239   0.47895   0.14250   0.00000  Uiso   1.00
H79    H     0.13814   0.61854   0.30402   0.00000  Uiso   1.00
H80    H     0.14310   0.67503   0.06475   0.00000  Uiso   1.00
H81    H     0.86896   0.36301   0.11727   0.00000  Uiso   1.00
H82    H     0.17630   0.65736   0.45784   0.00000  Uiso   1.00
H83    H     0.18675   0.77649   0.95329   0.00000  Uiso   1.00
O84    O     0.74415   0.32432   0.12342   0.00000  Uiso   1.00
O85    O     0.14736   0.71050   0.57022   0.00000  Uiso   1.00
O86    O     0.16107   0.86680   0.90826   0.00000  Uiso   1.00
N87    N     0.79052   0.43207   0.15875   0.00000  Uiso   1.00
N88    N     0.07785   0.70726   0.47716   0.00000  Uiso   1.00
N89    N     0.08764   0.81865   0.00546   0.00000  Uiso   1.00
N90    N     0.85490   0.39449   0.13239   0.00000  Uiso   1.00
N91    N     0.14222   0.66968   0.45081   0.00000  Uiso   1.00
N92    N     0.15201   0.78107   0.97911   0.00000  Uiso   1.00
C93    C     0.34405   0.32370   0.21607   0.00000  Uiso   1.00
C94    C     0.41493   0.35819   0.19382   0.00000  Uiso   1.00
C95    C     0.45360   0.33040   0.18981   0.00000  Uiso   1.00
C96    C     0.51720   0.37009   0.16833   0.00000  Uiso   1.00
C97    C     0.62361   0.41374   0.13638   0.00000  Uiso   1.00
C98    C     0.33910   0.36154   0.28159   0.00000  Uiso   1.00
C99    C     0.31399   0.33656   0.35136   0.00000  Uiso   1.00
C100   C     0.31375   0.37907   0.40376   0.00000  Uiso   1.00
C101   C     0.30239   0.42791   0.50805   0.00000  Uiso   1.00
C102   C     0.30841   0.33354   0.15158   0.00000  Uiso   1.00
C103   C     0.25748   0.28502   0.11205   0.00000  Uiso   1.00
C104   C     0.23139   0.30394   0.05501   0.00000  Uiso   1.00
C105   C     0.17238   0.30931   0.95744   0.00000  Uiso   1.00
C106   C     0.38824   0.44359   0.18509   0.00000  Uiso   1.00
C107   C     0.43893   0.42331   0.17699   0.00000  Uiso   1.00
C108   C     0.50249   0.46305   0.15552   0.00000  Uiso   1.00
C109   C     0.54124   0.43532   0.15147   0.00000  Uiso   1.00
C110   C     0.36310   0.42666   0.26476   0.00000  Uiso   1.00
C111   C     0.36289   0.46921   0.31707   0.00000  Uiso   1.00
C112   C     0.33780   0.44431   0.38690   0.00000  Uiso   1.00
C113   C     0.33241   0.39866   0.13475   0.00000  Uiso   1.00
C114   C     0.30638   0.41766   0.07776   0.00000  Uiso   1.00
C115   C     0.25543   0.36918   0.03815   0.00000  Uiso   1.00
H116   H     0.32536   0.27300   0.22918   0.00000  Uiso   1.00
H117   H     0.43501   0.28000   0.20284   0.00000  Uiso   1.00
H118   H     0.29542   0.28617   0.36436   0.00000  Uiso   1.00
H119   H     0.23892   0.23463   0.12509   0.00000  Uiso   1.00
H120   H     0.56716   0.31649   0.16624   0.00000  Uiso   1.00
H121   H     0.27281   0.32948   0.50681   0.00000  Uiso   1.00
H122   H     0.15368   0.22080   0.00226   0.00000  Uiso   1.00
H123   H     0.40692   0.49429   0.17198   0.00000  Uiso   1.00
H124   H     0.52105   0.51344   0.14250   0.00000  Uiso   1.00
H125   H     0.38146   0.51960   0.30402   0.00000  Uiso   1.00
H126   H     0.32497   0.46806   0.06475   0.00000  Uiso   1.00
H127   H     0.63699   0.50596   0.11727   0.00000  Uiso   1.00
H128   H     0.34264   0.51894   0.45784   0.00000  Uiso   1.00
H129   H     0.22351   0.41026   0.95329   0.00000  Uiso   1.00
O130   O     0.67568   0.41983   0.12342   0.00000  Uiso   1.00
O131   O     0.28950   0.43686   0.57022   0.00000  Uiso   1.00
O132   O     0.13320   0.29428   0.90826   0.00000  Uiso   1.00
N133   N     0.56793   0.35845   0.15875   0.00000  Uiso   1.00
N134   N     0.29274   0.37059   0.47716   0.00000  Uiso   1.00
N135   N     0.18135   0.26899   0.00546   0.00000  Uiso   1.00
N136   N     0.60551   0.46040   0.13239   0.00000  Uiso   1.00
N137   N     0.33032   0.47254   0.45081   0.00000  Uiso   1.00
N138   N     0.21893   0.37094   0.97911   0.00000  Uiso   1.00
C139   C     0.32370   0.97965   0.71607   0.00000  Uiso   1.00
C140   C     0.35819   0.94326   0.69382   0.00000  Uiso   1.00
C141   C     0.33040   0.87681   0.68981   0.00000  Uiso   1.00
C142   C     0.37009   0.85289   0.66833   0.00000  Uiso   1.00
C143   C     0.41374   0.79013   0.63638   0.00000  Uiso   1.00
C144   C     0.36154   0.02244   0.78159   0.00000  Uiso   1.00
C145   C     0.33656   0.02257   0.85136   0.00000  Uiso   1.00
C146   C     0.37907   0.06532   0.90376   0.00000  Uiso   1.00
C147   C     0.42791   0.12552   0.00805   0.00000  Uiso   1.00
C148   C     0.33354   0.02513   0.65158   0.00000  Uiso   1.00
C149   C     0.28502   0.02753   0.61205   0.00000  Uiso   1.00
C150   C     0.30394   0.07255   0.55501   0.00000  Uiso   1.00
C151   C     0.30931   0.13693   0.45744   0.00000  Uiso   1.00
C152   C     0.44359   0.05536   0.68509   0.00000  Uiso   1.00
C153   C     0.42331   0.98438   0.67699   0.00000  Uiso   1.00
C154   C     0.46305   0.96056   0.65552   0.00000  Uiso   1.00
C155   C     0.43532   0.89408   0.65147   0.00000  Uiso   1.00
C156   C     0.42666   0.06356   0.76476   0.00000  Uiso   1.00
C157   C     0.46921   0.10632   0.81707   0.00000  Uiso   1.00
C158   C     0.44431   0.10651   0.88690   0.00000  Uiso   1.00
C159   C     0.39866   0.06625   0.63475   0.00000  Uiso   1.00
C160   C     0.41766   0.11128   0.57776   0.00000  Uiso   1.00
C161   C     0.36918   0.11375   0.53815   0.00000  Uiso   1.00
H162   H     0.27300   0.94764   0.72918   0.00000  Uiso   1.00
H163   H     0.28000   0.84500   0.70284   0.00000  Uiso   1.00
H164   H     0.28617   0.99075   0.86436   0.00000  Uiso   1.00
H165   H     0.23463   0.99570   0.62509   0.00000  Uiso   1.00
H166   H     0.31649   0.74933   0.66624   0.00000  Uiso   1.00
H167   H     0.32948   0.05666   0.00681   0.00000  Uiso   1.00
H168   H     0.22080   0.06712   0.50226   0.00000  Uiso   1.00
H169   H     0.49429   0.08737   0.67198   0.00000  Uiso   1.00
H170   H     0.51344   0.99239   0.64250   0.00000  Uiso   1.00
H171   H     0.51960   0.13814   0.80402   0.00000  Uiso   1.00
H172   H     0.46806   0.14310   0.56475   0.00000  Uiso   1.00
H173   H     0.50596   0.86896   0.61727   0.00000  Uiso   1.00
H174   H     0.51894   0.17630   0.95784   0.00000  Uiso   1.00
H175   H     0.41026   0.18675   0.45329   0.00000  Uiso   1.00
O176   O     0.41983   0.74415   0.62342   0.00000  Uiso   1.00
O177   O     0.43686   0.14736   0.07022   0.00000  Uiso   1.00
O178   O     0.29428   0.16107   0.40826   0.00000  Uiso   1.00
N179   N     0.35845   0.79052   0.65875   0.00000  Uiso   1.00
N180   N     0.37059   0.07785   0.97716   0.00000  Uiso   1.00
N181   N     0.26899   0.08764   0.50546   0.00000  Uiso   1.00
N182   N     0.46040   0.85490   0.63239   0.00000  Uiso   1.00
N183   N     0.47254   0.14222   0.95081   0.00000  Uiso   1.00
N184   N     0.37094   0.15201   0.47911   0.00000  Uiso   1.00
C185   C     0.02035   0.34405   0.71607   0.00000  Uiso   1.00
C186   C     0.05674   0.41493   0.69382   0.00000  Uiso   1.00
C187   C     0.12319   0.45360   0.68981   0.00000  Uiso   1.00
C188   C     0.14711   0.51720   0.66833   0.00000  Uiso   1.00
C189   C     0.20987   0.62361   0.63638   0.00000  Uiso   1.00
C190   C     0.97756   0.33910   0.78159   0.00000  Uiso   1.00
C191   C     0.97743   0.31399   0.85136   0.00000  Uiso   1.00
C192   C     0.93468   0.31375   0.90376   0.00000  Uiso   1.00
C193   C     0.87448   0.30239   0.00805   0.00000  Uiso   1.00
C194   C     0.97487   0.30841   0.65158   0.00000  Uiso   1.00
C195   C     0.97247   0.25748   0.61205   0.00000  Uiso   1.00
C196   C     0.92745   0.23139   0.55501   0.00000  Uiso   1.00
C197   C     0.86307   0.17238   0.45744   0.00000  Uiso   1.00
C198   C     0.94464   0.38824   0.68509   0.00000  Uiso   1.00
C199   C     0.01562   0.43893   0.67699   0.00000  Uiso   1.00
C200   C     0.03944   0.50249   0.65552   0.00000  Uiso   1.00
C201   C     0.10592   0.54124   0.65147   0.00000  Uiso   1.00
C202   C     0.93644   0.36310   0.76476   0.00000  Uiso   1.00
C203   C     0.89368   0.36289   0.81707   0.00000  Uiso   1.00
C204   C     0.89349   0.33780   0.88690   0.00000  Uiso   1.00
C205   C     0.93375   0.33241   0.63475   0.00000  Uiso   1.00
C206   C     0.88872   0.30638   0.57776   0.00000  Uiso   1.00
C207   C     0.88625   0.25543   0.53815   0.00000  Uiso   1.00
H208   H     0.05236   0.32536   0.72918   0.00000  Uiso   1.00
H209   H     0.15500   0.43501   0.70284   0.00000  Uiso   1.00
H210   H     0.00925   0.29542   0.86436   0.00000  Uiso   1.00
H211   H     0.00430   0.23892   0.62509   0.00000  Uiso   1.00
H212   H     0.25067   0.56716   0.66624   0.00000  Uiso   1.00
H213   H     0.94334   0.27281   0.00681   0.00000  Uiso   1.00
H214   H     0.93288   0.15368   0.50226   0.00000  Uiso   1.00
H215   H     0.91263   0.40692   0.67198   0.00000  Uiso   1.00
H216   H     0.00761   0.52105   0.64250   0.00000  Uiso   1.00
H217   H     0.86186   0.38146   0.80402   0.00000  Uiso   1.00
H218   H     0.85690   0.32497   0.56475   0.00000  Uiso   1.00
H219   H     0.13104   0.63699   0.61727   0.00000  Uiso   1.00
H220   H     0.82370   0.34264   0.95784   0.00000  Uiso   1.00
H221   H     0.81325   0.22351   0.45329   0.00000  Uiso   1.00
O222   O     0.25585   0.67568   0.62342   0.00000  Uiso   1.00
O223   O     0.85264   0.28950   0.07022   0.00000  Uiso   1.00
O224   O     0.83893   0.13320   0.40826   0.00000  Uiso   1.00
N225   N     0.20948   0.56793   0.65875   0.00000  Uiso   1.00
N226   N     0.92215   0.29274   0.97716   0.00000  Uiso   1.00
N227   N     0.91236   0.18135   0.50546   0.00000  Uiso   1.00
N228   N     0.14510   0.60551   0.63239   0.00000  Uiso   1.00
N229   N     0.85778   0.33032   0.95081   0.00000  Uiso   1.00
N230   N     0.84799   0.21893   0.47911   0.00000  Uiso   1.00
C231   C     0.65595   0.67630   0.71607   0.00000  Uiso   1.00
C232   C     0.58507   0.64181   0.69382   0.00000  Uiso   1.00
C233   C     0.54640   0.66960   0.68981   0.00000  Uiso   1.00
C234   C     0.48280   0.62991   0.66833   0.00000  Uiso   1.00
C235   C     0.37639   0.58626   0.63638   0.00000  Uiso   1.00
C236   C     0.66090   0.63846   0.78159   0.00000  Uiso   1.00
C237   C     0.68601   0.66344   0.85136   0.00000  Uiso   1.00
C238   C     0.68625   0.62093   0.90376   0.00000  Uiso   1.00
C239   C     0.69761   0.57209   0.00805   0.00000  Uiso   1.00
C240   C     0.69159   0.66646   0.65158   0.00000  Uiso   1.00
C241   C     0.74252   0.71498   0.61205   0.00000  Uiso   1.00
C242   C     0.76861   0.69606   0.55501   0.00000  Uiso   1.00
C243   C     0.82762   0.69069   0.45744   0.00000  Uiso   1.00
C244   C     0.61176   0.55641   0.68509   0.00000  Uiso   1.00
C245   C     0.56107   0.57669   0.67699   0.00000  Uiso   1.00
C246   C     0.49751   0.53695   0.65552   0.00000  Uiso   1.00
C247   C     0.45876   0.56468   0.65147   0.00000  Uiso   1.00
C248   C     0.63690   0.57334   0.76476   0.00000  Uiso   1.00
C249   C     0.63711   0.53079   0.81707   0.00000  Uiso   1.00
C250   C     0.66220   0.55569   0.88690   0.00000  Uiso   1.00
C251   C     0.66759   0.60134   0.63475   0.00000  Uiso   1.00
C252   C     0.69362   0.58234   0.57776   0.00000  Uiso   1.00
C253   C     0.74457   0.63082   0.53815   0.00000  Uiso   1.00
H254   H     0.67464   0.72700   0.72918   0.00000  Uiso   1.00
H255   H     0.56499   0.72000   0.70284   0.00000  Uiso   1.00
H256   H     0.70458   0.71383   0.86436   0.00000  Uiso   1.00
H257   H     0.76108   0.76537   0.62509   0.00000  Uiso   1.00
H258   H     0.43284   0.68351   0.66624   0.00000  Uiso   1.00
H259   H     0.72719   0.67052   0.00681   0.00000  Uiso   1.00
H260   H     0.84632   0.77920   0.50226   0.00000  Uiso   1.00
H261   H     0.59308   0.50571   0.67198   0.00000  Uiso   1.00
H262   H     0.47895   0.48656   0.64250   0.00000  Uiso   1.00
H263   H     0.61854   0.48040   0.80402   0.00000  Uiso   1.00
H264   H     0.67503   0.53194   0.56475   0.00000  Uiso   1.00
H265   H     0.36301   0.49404   0.61727   0.00000  Uiso   1.00
H266   H     0.65736   0.48106   0.95784   0.00000  Uiso   1.00
H267   H     0.77649   0.58974   0.45329   0.00000  Uiso   1.00
O268   O     0.32432   0.58017   0.62342   0.00000  Uiso   1.00
O269   O     0.71050   0.56314   0.07022   0.00000  Uiso   1.00
O270   O     0.86680   0.70572   0.40826   0.00000  Uiso   1.00
N271   N     0.43207   0.64155   0.65875   0.00000  Uiso   1.00
N272   N     0.70726   0.62941   0.97716   0.00000  Uiso   1.00
N273   N     0.81865   0.73101   0.50546   0.00000  Uiso   1.00
N274   N     0.39449   0.53960   0.63239   0.00000  Uiso   1.00
N275   N     0.66968   0.52746   0.95081   0.00000  Uiso   1.00
N276   N     0.78107   0.62906   0.47911   0.00000  Uiso   1.00
C277   C     0.02035   0.67630   0.78393   0.00000  Uiso   1.00
C278   C     0.05674   0.64181   0.80618   0.00000  Uiso   1.00
C279   C     0.12319   0.66960   0.81019   0.00000  Uiso   1.00
C280   C     0.14711   0.62991   0.83167   0.00000  Uiso   1.00
C281   C     0.20987   0.58626   0.86362   0.00000  Uiso   1.00
C282   C     0.97756   0.63846   0.71841   0.00000  Uiso   1.00
C283   C     0.97743   0.66344   0.64864   0.00000  Uiso   1.00
C284   C     0.93468   0.62093   0.59624   0.00000  Uiso   1.00
C285   C     0.87448   0.57209   0.49195   0.00000  Uiso   1.00
C286   C     0.97487   0.66646   0.84842   0.00000  Uiso   1.00
C287   C     0.97247   0.71498   0.88795   0.00000  Uiso   1.00
C288   C     0.92745   0.69606   0.94499   0.00000  Uiso   1.00
C289   C     0.86307   0.69069   0.04256   0.00000  Uiso   1.00
C290   C     0.94464   0.55641   0.81491   0.00000  Uiso   1.00
C291   C     0.01562   0.57669   0.82301   0.00000  Uiso   1.00
C292   C     0.03944   0.53695   0.84448   0.00000  Uiso   1.00
C293   C     0.10592   0.56468   0.84853   0.00000  Uiso   1.00
C294   C     0.93644   0.57334   0.73524   0.00000  Uiso   1.00
C295   C     0.89368   0.53079   0.68293   0.00000  Uiso   1.00
C296   C     0.89349   0.55569   0.61310   0.00000  Uiso   1.00
C297   C     0.93375   0.60134   0.86525   0.00000  Uiso   1.00
C298   C     0.88872   0.58234   0.92224   0.00000  Uiso   1.00
C299   C     0.88625   0.63082   0.96185   0.00000  Uiso   1.00
H300   H     0.05236   0.72700   0.77082   0.00000  Uiso   1.00
H301   H     0.15500   0.72000   0.79716   0.00000  Uiso   1.00
H302   H     0.00925   0.71383   0.63564   0.00000  Uiso   1.00
H303   H     0.00430   0.76537   0.87491   0.00000  Uiso   1.00
H304   H     0.25067   0.68351   0.83376   0.00000  Uiso   1.00
H305   H     0.94334   0.67052   0.49319   0.00000  Uiso   1.00
H306   H     0.93288   0.77920   0.99774   0.00000  Uiso   1.00
H307   H     0.91263   0.50571   0.82802   0.00000  Uiso   1.00
H308   H     0.00761   0.48656   0.85750   0.00000  Uiso   1.00
H309   H     0.86186   0.48040   0.69598   0.00000  Uiso   1.00
H310   H     0.85690   0.53194   0.93525   0.00000  Uiso   1.00
H311   H     0.13104   0.49404   0.88273   0.00000  Uiso   1.00
H312   H     0.82370   0.48106   0.54216   0.00000  Uiso   1.00
H313   H     0.81325   0.58974   0.04671   0.00000  Uiso   1.00
O314   O     0.25585   0.58017   0.87658   0.00000  Uiso   1.00
O315   O     0.85264   0.56314   0.42978   0.00000  Uiso   1.00
O316   O     0.83893   0.70572   0.09174   0.00000  Uiso   1.00
N317   N     0.20948   0.64155   0.84125   0.00000  Uiso   1.00
N318   N     0.92215   0.62941   0.52284   0.00000  Uiso   1.00
N319   N     0.91236   0.73101   0.99454   0.00000  Uiso   1.00
N320   N     0.14510   0.53960   0.86761   0.00000  Uiso   1.00
N321   N     0.85778   0.52746   0.54919   0.00000  Uiso   1.00
N322   N     0.84799   0.62906   0.02089   0.00000  Uiso   1.00
C323   C     0.65595   0.97965   0.78393   0.00000  Uiso   1.00
C324   C     0.58507   0.94326   0.80618   0.00000  Uiso   1.00
C325   C     0.54640   0.87681   0.81019   0.00000  Uiso   1.00
C326   C     0.48280   0.85289   0.83167   0.00000  Uiso   1.00
C327   C     0.37639   0.79013   0.86362   0.00000  Uiso   1.00
C328   C     0.66090   0.02244   0.71841   0.00000  Uiso   1.00
C329   C     0.68601   0.02257   0.64864   0.00000  Uiso   1.00
C330   C     0.68625   0.06532   0.59624   0.00000  Uiso   1.00
C331   C     0.69761   0.12552   0.49195   0.00000  Uiso   1.00
C332   C     0.69159   0.02513   0.84842   0.00000  Uiso   1.00
C333   C     0.74252   0.02753   0.88795   0.00000  Uiso   1.00
C334   C     0.76861   0.07255   0.94499   0.00000  Uiso   1.00
C335   C     0.82762   0.13693   0.04256   0.00000  Uiso   1.00
C336   C     0.61176   0.05536   0.81491   0.00000  Uiso   1.00
C337   C     0.56107   0.98438   0.82301   0.00000  Uiso   1.00
C338   C     0.49751   0.96056   0.84448   0.00000  Uiso   1.00
C339   C     0.45876   0.89408   0.84853   0.00000  Uiso   1.00
C340   C     0.63690   0.06356   0.73524   0.00000  Uiso   1.00
C341   C     0.63711   0.10632   0.68293   0.00000  Uiso   1.00
C342   C     0.66220   0.10651   0.61310   0.00000  Uiso   1.00
C343   C     0.66759   0.06625   0.86525   0.00000  Uiso   1.00
C344   C     0.69362   0.11128   0.92224   0.00000  Uiso   1.00
C345   C     0.74457   0.11375   0.96185   0.00000  Uiso   1.00
H346   H     0.67464   0.94764   0.77082   0.00000  Uiso   1.00
H347   H     0.56499   0.84500   0.79716   0.00000  Uiso   1.00
H348   H     0.70458   0.99075   0.63564   0.00000  Uiso   1.00
H349   H     0.76108   0.99570   0.87491   0.00000  Uiso   1.00
H350   H     0.43284   0.74933   0.83376   0.00000  Uiso   1.00
H351   H     0.72719   0.05666   0.49319   0.00000  Uiso   1.00
H352   H     0.84632   0.06712   0.99774   0.00000  Uiso   1.00
H353   H     0.59308   0.08737   0.82802   0.00000  Uiso   1.00
H354   H     0.47895   0.99239   0.85750   0.00000  Uiso   1.00
H355   H     0.61854   0.13814   0.69598   0.00000  Uiso   1.00
H356   H     0.67503   0.14310   0.93525   0.00000  Uiso   1.00
H357   H     0.36301   0.86896   0.88273   0.00000  Uiso   1.00
H358   H     0.65736   0.17630   0.54216   0.00000  Uiso   1.00
H359   H     0.77649   0.18675   0.04671   0.00000  Uiso   1.00
O360   O     0.32432   0.74415   0.87658   0.00000  Uiso   1.00
O361   O     0.71050   0.14736   0.42978   0.00000  Uiso   1.00
O362   O     0.86680   0.16107   0.09174   0.00000  Uiso   1.00
N363   N     0.43207   0.79052   0.84125   0.00000  Uiso   1.00
N364   N     0.70726   0.07785   0.52284   0.00000  Uiso   1.00
N365   N     0.81865   0.08764   0.99454   0.00000  Uiso   1.00
N366   N     0.39449   0.85490   0.86761   0.00000  Uiso   1.00
N367   N     0.66968   0.14222   0.54919   0.00000  Uiso   1.00
N368   N     0.78107   0.15201   0.02089   0.00000  Uiso   1.00
C369   C     0.32370   0.34405   0.78393   0.00000  Uiso   1.00
C370   C     0.35819   0.41493   0.80618   0.00000  Uiso   1.00
C371   C     0.33040   0.45360   0.81019   0.00000  Uiso   1.00
C372   C     0.37009   0.51720   0.83167   0.00000  Uiso   1.00
C373   C     0.41374   0.62361   0.86362   0.00000  Uiso   1.00
C374   C     0.36154   0.33910   0.71841   0.00000  Uiso   1.00
C375   C     0.33656   0.31399   0.64864   0.00000  Uiso   1.00
C376   C     0.37907   0.31375   0.59624   0.00000  Uiso   1.00
C377   C     0.42791   0.30239   0.49195   0.00000  Uiso   1.00
C378   C     0.33354   0.30841   0.84842   0.00000  Uiso   1.00
C379   C     0.28502   0.25748   0.88795   0.00000  Uiso   1.00
C380   C     0.30394   0.23139   0.94499   0.00000  Uiso   1.00
C381   C     0.30931   0.17238   0.04256   0.00000  Uiso   1.00
C382   C     0.44359   0.38824   0.81491   0.00000  Uiso   1.00
C383   C     0.42331   0.43893   0.82301   0.00000  Uiso   1.00
C384   C     0.46305   0.50249   0.84448   0.00000  Uiso   1.00
C385   C     0.43532   0.54124   0.84853   0.00000  Uiso   1.00
C386   C     0.42666   0.36310   0.73524   0.00000  Uiso   1.00
C387   C     0.46921   0.36289   0.68293   0.00000  Uiso   1.00
C388   C     0.44431   0.33780   0.61310   0.00000  Uiso   1.00
C389   C     0.39866   0.33241   0.86525   0.00000  Uiso   1.00
C390   C     0.41766   0.30638   0.92224   0.00000  Uiso   1.00
C391   C     0.36918   0.25543   0.96185   0.00000  Uiso   1.00
H392   H     0.27300   0.32536   0.77082   0.00000  Uiso   1.00
H393   H     0.28000   0.43501   0.79716   0.00000  Uiso   1.00
H394   H     0.28617   0.29542   0.63564   0.00000  Uiso   1.00
H395   H     0.23463   0.23892   0.87491   0.00000  Uiso   1.00
H396   H     0.31649   0.56716   0.83376   0.00000  Uiso   1.00
H397   H     0.32948   0.27281   0.49319   0.00000  Uiso   1.00
H398   H     0.22080   0.15368   0.99774   0.00000  Uiso   1.00
H399   H     0.49429   0.40692   0.82802   0.00000  Uiso   1.00
H400   H     0.51344   0.52105   0.85750   0.00000  Uiso   1.00
H401   H     0.51960   0.38146   0.69598   0.00000  Uiso   1.00
H402   H     0.46806   0.32497   0.93525   0.00000  Uiso   1.00
H403   H     0.50596   0.63699   0.88273   0.00000  Uiso   1.00
H404   H     0.51894   0.34264   0.54216   0.00000  Uiso   1.00
H405   H     0.41026   0.22351   0.04671   0.00000  Uiso   1.00
O406   O     0.41983   0.67568   0.87658   0.00000  Uiso   1.00
O407   O     0.43686   0.28950   0.42978   0.00000  Uiso   1.00
O408   O     0.29428   0.13320   0.09174   0.00000  Uiso   1.00
N409   N     0.35845   0.56793   0.84125   0.00000  Uiso   1.00
N410   N     0.37059   0.29274   0.52284   0.00000  Uiso   1.00
N411   N     0.26899   0.18135   0.99454   0.00000  Uiso   1.00
N412   N     0.46040   0.60551   0.86761   0.00000  Uiso   1.00
N413   N     0.47254   0.33032   0.54919   0.00000  Uiso   1.00
N414   N     0.37094   0.21893   0.02089   0.00000  Uiso   1.00
C415   C     0.97965   0.32370   0.28393   0.00000  Uiso   1.00
C416   C     0.94326   0.35819   0.30618   0.00000  Uiso   1.00
C417   C     0.87681   0.33040   0.31019   0.00000  Uiso   1.00
C418   C     0.85289   0.37009   0.33167   0.00000  Uiso   1.00
C419   C     0.79013   0.41374   0.36362   0.00000  Uiso   1.00
C420   C     0.02244   0.36154   0.21841   0.00000  Uiso   1.00
C421   C     0.02257   0.33656   0.14864   0.00000  Uiso   1.00
C422   C     0.06532   0.37907   0.09624   0.00000  Uiso   1.00
C423   C     0.12552   0.42791   0.99195   0.00000  Uiso   1.00
C424   C     0.02513   0.33354   0.34842   0.00000  Uiso   1.00
C425   C     0.02753   0.28502   0.38795   0.00000  Uiso   1.00
C426   C     0.07255   0.30394   0.44499   0.00000  Uiso   1.00
C427   C     0.13693   0.30931   0.54256   0.00000  Uiso   1.00
C428   C     0.05536   0.44359   0.31491   0.00000  Uiso   1.00
C429   C     0.98438   0.42331   0.32301   0.00000  Uiso   1.00
C430   C     0.96056   0.46305   0.34448   0.00000  Uiso   1.00
C431   C     0.89408   0.43532   0.34853   0.00000  Uiso   1.00
C432   C     0.06356   0.42666   0.23524   0.00000  Uiso   1.00
C433   C     0.10632   0.46921   0.18293   0.00000  Uiso   1.00
C434   C     0.10651   0.44431   0.11310   0.00000  Uiso   1.00
C435   C     0.06625   0.39866   0.36525   0.00000  Uiso   1.00
C436   C     0.11128   0.41766   0.42224   0.00000  Uiso   1.00
C437   C     0.11375   0.36918   0.46185   0.00000  Uiso   1.00
H438   H     0.94764   0.27300   0.27082   0.00000  Uiso   1.00
H439   H     0.84500   0.28000   0.29716   0.00000  Uiso   1.00
H440   H     0.99075   0.28617   0.13564   0.00000  Uiso   1.00
H441   H     0.99570   0.23463   0.37491   0.00000  Uiso   1.00
H442   H     0.74933   0.31649   0.33376   0.00000  Uiso   1.00
H443   H     0.05666   0.32948   0.99319   0.00000  Uiso   1.00
H444   H     0.06712   0.22080   0.49774   0.00000  Uiso   1.00
H445   H     0.08737   0.49429   0.32802   0.00000  Uiso   1.00
H446   H     0.99239   0.51344   0.35750   0.00000  Uiso   1.00
H447   H     0.13814   0.51960   0.19598   0.00000  Uiso   1.00
H448   H     0.14310   0.46806   0.43525   0.00000  Uiso   1.00
H449   H     0.86896   0.50596   0.38273   0.00000  Uiso   1.00
H450   H     0.17630   0.51894   0.04216   0.00000  Uiso   1.00
H451   H     0.18675   0.41026   0.54671   0.00000  Uiso   1.00
O452   O     0.74415   0.41983   0.37658   0.00000  Uiso   1.00
O453   O     0.14736   0.43686   0.92978   0.00000  Uiso   1.00
O454   O     0.16107   0.29428   0.59174   0.00000  Uiso   1.00
N455   N     0.79052   0.35845   0.34125   0.00000  Uiso   1.00
N456   N     0.07785   0.37059   0.02284   0.00000  Uiso   1.00
N457   N     0.08764   0.26899   0.49454   0.00000  Uiso   1.00
N458   N     0.85490   0.46040   0.36761   0.00000  Uiso   1.00
N459   N     0.14222   0.47254   0.04919   0.00000  Uiso   1.00
N460   N     0.15201   0.37094   0.52089   0.00000  Uiso   1.00
C461   C     0.34405   0.02035   0.28393   0.00000  Uiso   1.00
C462   C     0.41493   0.05674   0.30618   0.00000  Uiso   1.00
C463   C     0.45360   0.12319   0.31019   0.00000  Uiso   1.00
C464   C     0.51720   0.14711   0.33167   0.00000  Uiso   1.00
C465   C     0.62361   0.20987   0.36362   0.00000  Uiso   1.00
C466   C     0.33910   0.97756   0.21841   0.00000  Uiso   1.00
C467   C     0.31399   0.97743   0.14864   0.00000  Uiso   1.00
C468   C     0.31375   0.93468   0.09624   0.00000  Uiso   1.00
C469   C     0.30239   0.87448   0.99195   0.00000  Uiso   1.00
C470   C     0.30841   0.97487   0.34842   0.00000  Uiso   1.00
C471   C     0.25748   0.97247   0.38795   0.00000  Uiso   1.00
C472   C     0.23139   0.92745   0.44499   0.00000  Uiso   1.00
C473   C     0.17238   0.86307   0.54256   0.00000  Uiso   1.00
C474   C     0.38824   0.94464   0.31491   0.00000  Uiso   1.00
C475   C     0.43893   0.01562   0.32301   0.00000  Uiso   1.00
C476   C     0.50249   0.03944   0.34448   0.00000  Uiso   1.00
C477   C     0.54124   0.10592   0.34853   0.00000  Uiso   1.00
C478   C     0.36310   0.93644   0.23524   0.00000  Uiso   1.00
C479   C     0.36289   0.89368   0.18293   0.00000  Uiso   1.00
C480   C     0.33780   0.89349   0.11310   0.00000  Uiso   1.00
C481   C     0.33241   0.93375   0.36525   0.00000  Uiso   1.00
C482   C     0.30638   0.88872   0.42224   0.00000  Uiso   1.00
C483   C     0.25543   0.88625   0.46185   0.00000  Uiso   1.00
H484   H     0.32536   0.05236   0.27082   0.00000  Uiso   1.00
H485   H     0.43501   0.15500   0.29716   0.00000  Uiso   1.00
H486   H     0.29542   0.00925   0.13564   0.00000  Uiso   1.00
H487   H     0.23892   0.00430   0.37491   0.00000  Uiso   1.00
H488   H     0.56716   0.25067   0.33376   0.00000  Uiso   1.00
H489   H     0.27281   0.94334   0.99319   0.00000  Uiso   1.00
H490   H     0.15368   0.93288   0.49774   0.00000  Uiso   1.00
H491   H     0.40692   0.91263   0.32802   0.00000  Uiso   1.00
H492   H     0.52105   0.00761   0.35750   0.00000  Uiso   1.00
H493   H     0.38146   0.86186   0.19598   0.00000  Uiso   1.00
H494   H     0.32497   0.85690   0.43525   0.00000  Uiso   1.00
H495   H     0.63699   0.13104   0.38273   0.00000  Uiso   1.00
H496   H     0.34264   0.82370   0.04216   0.00000  Uiso   1.00
H497   H     0.22351   0.81325   0.54671   0.00000  Uiso   1.00
O498   O     0.67568   0.25585   0.37658   0.00000  Uiso   1.00
O499   O     0.28950   0.85264   0.92978   0.00000  Uiso   1.00
O500   O     0.13320   0.83893   0.59174   0.00000  Uiso   1.00
N501   N     0.56793   0.20948   0.34125   0.00000  Uiso   1.00
N502   N     0.29274   0.92215   0.02284   0.00000  Uiso   1.00
N503   N     0.18135   0.91236   0.49454   0.00000  Uiso   1.00
N504   N     0.60551   0.14510   0.36761   0.00000  Uiso   1.00
N505   N     0.33032   0.85778   0.04919   0.00000  Uiso   1.00
N506   N     0.21893   0.84799   0.52089   0.00000  Uiso   1.00
C507   C     0.67630   0.65595   0.28393   0.00000  Uiso   1.00
C508   C     0.64181   0.58507   0.30618   0.00000  Uiso   1.00
C509   C     0.66960   0.54640   0.31019   0.00000  Uiso   1.00
C510   C     0.62991   0.48280   0.33167   0.00000  Uiso   1.00
C511   C     0.58626   0.37639   0.36362   0.00000  Uiso   1.00
C512   C     0.63846   0.66090   0.21841   0.00000  Uiso   1.00
C513   C     0.66344   0.68601   0.14864   0.00000  Uiso   1.00
C514   C     0.62093   0.68625   0.09624   0.00000  Uiso   1.00
C515   C     0.57209   0.69761   0.99195   0.00000  Uiso   1.00
C516   C     0.66646   0.69159   0.34842   0.00000  Uiso   1.00
C517   C     0.71498   0.74252   0.38795   0.00000  Uiso   1.00
C518   C     0.69606   0.76861   0.44499   0.00000  Uiso   1.00
C519   C     0.69069   0.82762   0.54256   0.00000  Uiso   1.00
C520   C     0.55641   0.61176   0.31491   0.00000  Uiso   1.00
C521   C     0.57669   0.56107   0.32301   0.00000  Uiso   1.00
C522   C     0.53695   0.49751   0.34448   0.00000  Uiso   1.00
C523   C     0.56468   0.45876   0.34853   0.00000  Uiso   1.00
C524   C     0.57334   0.63690   0.23524   0.00000  Uiso   1.00
C525   C     0.53079   0.63711   0.18293   0.00000  Uiso   1.00
C526   C     0.55569   0.66220   0.11310   0.00000  Uiso   1.00
C527   C     0.60134   0.66759   0.36525   0.00000  Uiso   1.00
C528   C     0.58234   0.69362   0.42224   0.00000  Uiso   1.00
C529   C     0.63082   0.74457   0.46185   0.00000  Uiso   1.00
H530   H     0.72700   0.67464   0.27082   0.00000  Uiso   1.00
H531   H     0.72000   0.56499   0.29716   0.00000  Uiso   1.00
H532   H     0.71383   0.70458   0.13564   0.00000  Uiso   1.00
H533   H     0.76537   0.76108   0.37491   0.00000  Uiso   1.00
H534   H     0.68351   0.43284   0.33376   0.00000  Uiso   1.00
H535   H     0.67052   0.72719   0.99319   0.00000  Uiso   1.00
H536   H     0.77920   0.84632   0.49774   0.00000  Uiso   1.00
H537   H     0.50571   0.59308   0.32802   0.00000  Uiso   1.00
H538   H     0.48656   0.47895   0.35750   0.00000  Uiso   1.00
H539   H     0.48040   0.61854   0.19598   0.00000  Uiso   1.00
H540   H     0.53194   0.67503   0.43525   0.00000  Uiso   1.00
H541   H     0.49404   0.36301   0.38273   0.00000  Uiso   1.00
H542   H     0.48106   0.65736   0.04216   0.00000  Uiso   1.00
H543   H     0.58974   0.77649   0.54671   0.00000  Uiso   1.00
O544   O     0.58017   0.32432   0.37658   0.00000  Uiso   1.00
O545   O     0.56314   0.71050   0.92978   0.00000  Uiso   1.00
O546   O     0.70572   0.86680   0.59174   0.00000  Uiso   1.00
N547   N     0.64155   0.43207   0.34125   0.00000  Uiso   1.00
N548   N     0.62941   0.70726   0.02284   0.00000  Uiso   1.00
N549   N     0.73101   0.81865   0.49454   0.00000  Uiso   1.00
N550   N     0.53960   0.39449   0.36761   0.00000  Uiso   1.00
N551   N     0.52746   0.66968   0.04919   0.00000  Uiso   1.00
N552   N     0.62906   0.78107   0.52089   0.00000  Uiso   1.00
