data_job_04926
_audit_creation_date              2018-12-19
_audit_creation_method            'Materials Studio'
_symmetry_space_group_name_H-M    'P1'
_symmetry_Int_Tables_number       1
_symmetry_cell_setting            triclinic
loop_
_symmetry_equiv_pos_as_xyz
  x,y,z
_cell_length_a                    18.4616
_cell_length_b                    12.3498
_cell_length_c                    23.2213
_cell_angle_alpha                 90.0000
_cell_angle_beta                  90.0000
_cell_angle_gamma                 90.0000
loop_
_atom_site_label
_atom_site_type_symbol
_atom_site_fract_x
_atom_site_fract_y
_atom_site_fract_z
_atom_site_U_iso_or_equiv
_atom_site_adp_type
_atom_site_occupancy
C1     C     0.28927   0.05394   0.35962   0.00000  Uiso   1.00
C2     C     0.22869   0.13060   0.37780   0.00000  Uiso   1.00
C3     C     0.20725   0.22308   0.34844   0.00000  Uiso   1.00
C4     C     0.15073   0.28237   0.37213   0.00000  Uiso   1.00
C5     C     0.06183   0.40632   0.39259   0.00000  Uiso   1.00
C6     C     0.34155   0.04875   0.41038   0.00000  Uiso   1.00
C7     C     0.41500   0.07239   0.40841   0.00000  Uiso   1.00
C8     C     0.45348   0.06276   0.45953   0.00000  Uiso   1.00
C9     C     0.53981   0.05956   0.53056   0.00000  Uiso   1.00
C10    C     0.25491   0.94195   0.35528   0.00000  Uiso   1.00
C11    C     0.25554   0.87578   0.30697   0.00000  Uiso   1.00
C12    C     0.22110   0.77623   0.31169   0.00000  Uiso   1.00
C13    C     0.17291   0.60721   0.29717   0.00000  Uiso   1.00
C14    C     0.22701   0.99480   0.45390   0.00000  Uiso   1.00
C15    C     0.19488   0.09847   0.42901   0.00000  Uiso   1.00
C16    C     0.13837   0.15764   0.45275   0.00000  Uiso   1.00
C17    C     0.11685   0.25019   0.42343   0.00000  Uiso   1.00
C18    C     0.30774   0.01662   0.46159   0.00000  Uiso   1.00
C19    C     0.34612   0.00695   0.51272   0.00000  Uiso   1.00
C20    C     0.41961   0.03058   0.51083   0.00000  Uiso   1.00
C21    C     0.22110   0.90983   0.40649   0.00000  Uiso   1.00
C22    C     0.18666   0.81035   0.41128   0.00000  Uiso   1.00
C23    C     0.18722   0.74405   0.36300   0.00000  Uiso   1.00
H24    H     0.31560   0.07895   0.31975   0.00000  Uiso   1.00
H25    H     0.23343   0.24792   0.30881   0.00000  Uiso   1.00
H26    H     0.44115   0.09724   0.36877   0.00000  Uiso   1.00
H27    H     0.28171   0.90067   0.26735   0.00000  Uiso   1.00
H28    H     0.12745   0.42110   0.31928   0.00000  Uiso   1.00
H29    H     0.56543   0.10335   0.44571   0.00000  Uiso   1.00
H30    H     0.22923   0.68885   0.23184   0.00000  Uiso   1.00
H31    H     0.20069   0.96978   0.49377   0.00000  Uiso   1.00
H32    H     0.11222   0.13276   0.49238   0.00000  Uiso   1.00
H33    H     0.31994   0.98208   0.55234   0.00000  Uiso   1.00
H34    H     0.16050   0.78552   0.45092   0.00000  Uiso   1.00
H35    H     0.02906   0.32763   0.46828   0.00000  Uiso   1.00
H36    H     0.46705   0.00988   0.59470   0.00000  Uiso   1.00
H37    H     0.13084   0.59539   0.38083   0.00000  Uiso   1.00
O38    O     0.02214   0.48357   0.38974   0.00000  Uiso   1.00
O39    O     0.59677   0.06668   0.55560   0.00000  Uiso   1.00
O40    O     0.15567   0.52286   0.27501   0.00000  Uiso   1.00
N41    N     0.11642   0.37672   0.35453   0.00000  Uiso   1.00
N42    N     0.52591   0.07967   0.47274   0.00000  Uiso   1.00
N43    N     0.21160   0.69213   0.27279   0.00000  Uiso   1.00
N44    N     0.06348   0.32643   0.43470   0.00000  Uiso   1.00
N45    N     0.47297   0.02937   0.55291   0.00000  Uiso   1.00
N46    N     0.15866   0.64184   0.35296   0.00000  Uiso   1.00
C47    C     0.46582   0.54747   0.66485   0.00000  Uiso   1.00
C48    C     0.52733   0.62313   0.64746   0.00000  Uiso   1.00
C49    C     0.54911   0.71490   0.67729   0.00000  Uiso   1.00
C50    C     0.60649   0.77333   0.65431   0.00000  Uiso   1.00
C51    C     0.69675   0.89575   0.63506   0.00000  Uiso   1.00
C52    C     0.41429   0.54377   0.61357   0.00000  Uiso   1.00
C53    C     0.34102   0.56881   0.61490   0.00000  Uiso   1.00
C54    C     0.30324   0.56042   0.56339   0.00000  Uiso   1.00
C55    C     0.21798   0.55956   0.49152   0.00000  Uiso   1.00
C56    C     0.49915   0.43479   0.66920   0.00000  Uiso   1.00
C57    C     0.49722   0.36817   0.71731   0.00000  Uiso   1.00
C58    C     0.53087   0.26801   0.71264   0.00000  Uiso   1.00
C59    C     0.57737   0.09794   0.72715   0.00000  Uiso   1.00
C60    C     0.52900   0.48804   0.57101   0.00000  Uiso   1.00
C61    C     0.56164   0.59085   0.59649   0.00000  Uiso   1.00
C62    C     0.61901   0.64915   0.57347   0.00000  Uiso   1.00
C63    C     0.64087   0.74099   0.60325   0.00000  Uiso   1.00
C64    C     0.44860   0.51150   0.56260   0.00000  Uiso   1.00
C65    C     0.41092   0.50306   0.51108   0.00000  Uiso   1.00
C66    C     0.33762   0.52808   0.51233   0.00000  Uiso   1.00
C67    C     0.53346   0.40251   0.61823   0.00000  Uiso   1.00
C68    C     0.56712   0.30243   0.61349   0.00000  Uiso   1.00
C69    C     0.56525   0.23567   0.66158   0.00000  Uiso   1.00
H70    H     0.43910   0.57260   0.70453   0.00000  Uiso   1.00
H71    H     0.52254   0.73986   0.71673   0.00000  Uiso   1.00
H72    H     0.31448   0.59378   0.65435   0.00000  Uiso   1.00
H73    H     0.47065   0.39318   0.75675   0.00000  Uiso   1.00
H74    H     0.63015   0.91108   0.70777   0.00000  Uiso   1.00
H75    H     0.19144   0.60303   0.57625   0.00000  Uiso   1.00
H76    H     0.52077   0.18002   0.79216   0.00000  Uiso   1.00
H77    H     0.55572   0.46291   0.53132   0.00000  Uiso   1.00
H78    H     0.64556   0.62415   0.53402   0.00000  Uiso   1.00
H79    H     0.43749   0.47807   0.47164   0.00000  Uiso   1.00
H80    H     0.59367   0.27747   0.57404   0.00000  Uiso   1.00
H81    H     0.73000   0.81718   0.55947   0.00000  Uiso   1.00
H82    H     0.29128   0.50912   0.42795   0.00000  Uiso   1.00
H83    H     0.62062   0.08611   0.64387   0.00000  Uiso   1.00
O84    O     0.73705   0.97220   0.63851   0.00000  Uiso   1.00
O85    O     0.16148   0.56802   0.46596   0.00000  Uiso   1.00
O86    O     0.59355   0.01305   0.74924   0.00000  Uiso   1.00
N87    N     0.64133   0.86684   0.67250   0.00000  Uiso   1.00
N88    N     0.23117   0.57885   0.54954   0.00000  Uiso   1.00
N89    N     0.53904   0.18336   0.75140   0.00000  Uiso   1.00
N90    N     0.69506   0.81631   0.59271   0.00000  Uiso   1.00
N91    N     0.28489   0.52831   0.46974   0.00000  Uiso   1.00
N92    N     0.59277   0.13283   0.67160   0.00000  Uiso   1.00
C93    C     0.71073   0.94606   0.85962   0.00000  Uiso   1.00
C94    C     0.77131   0.86940   0.87780   0.00000  Uiso   1.00
C95    C     0.79275   0.77692   0.84844   0.00000  Uiso   1.00
C96    C     0.84927   0.71763   0.87213   0.00000  Uiso   1.00
C97    C     0.93817   0.59368   0.89259   0.00000  Uiso   1.00
C98    C     0.65845   0.95125   0.91038   0.00000  Uiso   1.00
C99    C     0.58500   0.92761   0.90841   0.00000  Uiso   1.00
C100   C     0.54652   0.93724   0.95953   0.00000  Uiso   1.00
C101   C     0.46019   0.94044   0.03056   0.00000  Uiso   1.00
C102   C     0.74509   0.05805   0.85528   0.00000  Uiso   1.00
C103   C     0.74446   0.12422   0.80697   0.00000  Uiso   1.00
C104   C     0.77890   0.22377   0.81169   0.00000  Uiso   1.00
C105   C     0.82709   0.39279   0.79717   0.00000  Uiso   1.00
C106   C     0.77299   0.00520   0.95390   0.00000  Uiso   1.00
C107   C     0.80512   0.90153   0.92901   0.00000  Uiso   1.00
C108   C     0.86163   0.84236   0.95275   0.00000  Uiso   1.00
C109   C     0.88315   0.74981   0.92343   0.00000  Uiso   1.00
C110   C     0.69226   0.98338   0.96159   0.00000  Uiso   1.00
C111   C     0.65388   0.99305   0.01272   0.00000  Uiso   1.00
C112   C     0.58039   0.96942   0.01083   0.00000  Uiso   1.00
C113   C     0.77890   0.09017   0.90649   0.00000  Uiso   1.00
C114   C     0.81334   0.18965   0.91128   0.00000  Uiso   1.00
C115   C     0.81278   0.25595   0.86300   0.00000  Uiso   1.00
H116   H     0.68440   0.92105   0.81975   0.00000  Uiso   1.00
H117   H     0.76657   0.75208   0.80881   0.00000  Uiso   1.00
H118   H     0.55885   0.90276   0.86877   0.00000  Uiso   1.00
H119   H     0.71829   0.09933   0.76735   0.00000  Uiso   1.00
H120   H     0.87255   0.57890   0.81928   0.00000  Uiso   1.00
H121   H     0.43457   0.89665   0.94571   0.00000  Uiso   1.00
H122   H     0.77077   0.31115   0.73184   0.00000  Uiso   1.00
H123   H     0.79931   0.03022   0.99377   0.00000  Uiso   1.00
H124   H     0.88778   0.86724   0.99238   0.00000  Uiso   1.00
H125   H     0.68006   0.01792   0.05234   0.00000  Uiso   1.00
H126   H     0.83950   0.21448   0.95092   0.00000  Uiso   1.00
H127   H     0.97094   0.67237   0.96828   0.00000  Uiso   1.00
H128   H     0.53295   0.99012   0.09470   0.00000  Uiso   1.00
H129   H     0.86916   0.40461   0.88083   0.00000  Uiso   1.00
O130   O     0.97786   0.51643   0.88974   0.00000  Uiso   1.00
O131   O     0.40323   0.93332   0.05560   0.00000  Uiso   1.00
O132   O     0.84433   0.47714   0.77501   0.00000  Uiso   1.00
N133   N     0.88358   0.62328   0.85453   0.00000  Uiso   1.00
N134   N     0.47409   0.92033   0.97274   0.00000  Uiso   1.00
N135   N     0.78840   0.30787   0.77279   0.00000  Uiso   1.00
N136   N     0.93652   0.67357   0.93470   0.00000  Uiso   1.00
N137   N     0.52703   0.97063   0.05291   0.00000  Uiso   1.00
N138   N     0.84134   0.35816   0.85296   0.00000  Uiso   1.00
C139   C     0.53418   0.45253   0.16485   0.00000  Uiso   1.00
C140   C     0.47267   0.37687   0.14746   0.00000  Uiso   1.00
C141   C     0.45089   0.28510   0.17729   0.00000  Uiso   1.00
C142   C     0.39351   0.22667   0.15431   0.00000  Uiso   1.00
C143   C     0.30325   0.10425   0.13506   0.00000  Uiso   1.00
C144   C     0.58571   0.45623   0.11357   0.00000  Uiso   1.00
C145   C     0.65898   0.43119   0.11490   0.00000  Uiso   1.00
C146   C     0.69676   0.43958   0.06339   0.00000  Uiso   1.00
C147   C     0.78202   0.44044   0.99152   0.00000  Uiso   1.00
C148   C     0.50085   0.56521   0.16920   0.00000  Uiso   1.00
C149   C     0.50278   0.63183   0.21731   0.00000  Uiso   1.00
C150   C     0.46913   0.73199   0.21264   0.00000  Uiso   1.00
C151   C     0.42263   0.90206   0.22715   0.00000  Uiso   1.00
C152   C     0.47100   0.51196   0.07101   0.00000  Uiso   1.00
C153   C     0.43836   0.40915   0.09649   0.00000  Uiso   1.00
C154   C     0.38099   0.35085   0.07347   0.00000  Uiso   1.00
C155   C     0.35913   0.25901   0.10325   0.00000  Uiso   1.00
C156   C     0.55140   0.48850   0.06260   0.00000  Uiso   1.00
C157   C     0.58908   0.49694   0.01108   0.00000  Uiso   1.00
C158   C     0.66238   0.47192   0.01233   0.00000  Uiso   1.00
C159   C     0.46654   0.59749   0.11823   0.00000  Uiso   1.00
C160   C     0.43288   0.69757   0.11349   0.00000  Uiso   1.00
C161   C     0.43475   0.76433   0.16158   0.00000  Uiso   1.00
H162   H     0.56090   0.42740   0.20453   0.00000  Uiso   1.00
H163   H     0.47746   0.26014   0.21673   0.00000  Uiso   1.00
H164   H     0.68552   0.40622   0.15435   0.00000  Uiso   1.00
H165   H     0.52935   0.60682   0.25675   0.00000  Uiso   1.00
H166   H     0.36985   0.08892   0.20777   0.00000  Uiso   1.00
H167   H     0.80856   0.39697   0.07625   0.00000  Uiso   1.00
H168   H     0.47923   0.81998   0.29216   0.00000  Uiso   1.00
H169   H     0.44428   0.53709   0.03132   0.00000  Uiso   1.00
H170   H     0.35444   0.37585   0.03402   0.00000  Uiso   1.00
H171   H     0.56251   0.52193   0.97164   0.00000  Uiso   1.00
H172   H     0.40633   0.72253   0.07404   0.00000  Uiso   1.00
H173   H     0.27000   0.18282   0.05947   0.00000  Uiso   1.00
H174   H     0.70872   0.49088   0.92795   0.00000  Uiso   1.00
H175   H     0.37938   0.91389   0.14387   0.00000  Uiso   1.00
O176   O     0.26295   0.02780   0.13851   0.00000  Uiso   1.00
O177   O     0.83852   0.43198   0.96596   0.00000  Uiso   1.00
O178   O     0.40645   0.98695   0.24924   0.00000  Uiso   1.00
N179   N     0.35867   0.13316   0.17250   0.00000  Uiso   1.00
N180   N     0.76883   0.42115   0.04954   0.00000  Uiso   1.00
N181   N     0.46096   0.81664   0.25140   0.00000  Uiso   1.00
N182   N     0.30494   0.18369   0.09271   0.00000  Uiso   1.00
N183   N     0.71511   0.47169   0.96974   0.00000  Uiso   1.00
N184   N     0.40723   0.86717   0.17160   0.00000  Uiso   1.00
C185   C     0.78927   0.94606   0.35962   0.00000  Uiso   1.00
C186   C     0.72869   0.86940   0.37780   0.00000  Uiso   1.00
C187   C     0.70725   0.77692   0.34844   0.00000  Uiso   1.00
C188   C     0.65073   0.71763   0.37213   0.00000  Uiso   1.00
C189   C     0.56183   0.59368   0.39259   0.00000  Uiso   1.00
C190   C     0.84155   0.95125   0.41038   0.00000  Uiso   1.00
C191   C     0.91500   0.92761   0.40841   0.00000  Uiso   1.00
C192   C     0.95348   0.93724   0.45953   0.00000  Uiso   1.00
C193   C     0.03981   0.94044   0.53056   0.00000  Uiso   1.00
C194   C     0.75491   0.05805   0.35528   0.00000  Uiso   1.00
C195   C     0.75554   0.12422   0.30697   0.00000  Uiso   1.00
C196   C     0.72110   0.22377   0.31169   0.00000  Uiso   1.00
C197   C     0.67291   0.39279   0.29717   0.00000  Uiso   1.00
C198   C     0.72701   0.00520   0.45390   0.00000  Uiso   1.00
C199   C     0.69488   0.90153   0.42901   0.00000  Uiso   1.00
C200   C     0.63837   0.84236   0.45275   0.00000  Uiso   1.00
C201   C     0.61685   0.74981   0.42343   0.00000  Uiso   1.00
C202   C     0.80774   0.98338   0.46159   0.00000  Uiso   1.00
C203   C     0.84612   0.99305   0.51272   0.00000  Uiso   1.00
C204   C     0.91961   0.96942   0.51083   0.00000  Uiso   1.00
C205   C     0.72110   0.09017   0.40649   0.00000  Uiso   1.00
C206   C     0.68666   0.18965   0.41128   0.00000  Uiso   1.00
C207   C     0.68722   0.25595   0.36300   0.00000  Uiso   1.00
H208   H     0.81560   0.92105   0.31975   0.00000  Uiso   1.00
H209   H     0.73343   0.75208   0.30881   0.00000  Uiso   1.00
H210   H     0.94115   0.90276   0.36877   0.00000  Uiso   1.00
H211   H     0.78171   0.09933   0.26735   0.00000  Uiso   1.00
H212   H     0.62745   0.57890   0.31928   0.00000  Uiso   1.00
H213   H     0.06543   0.89665   0.44571   0.00000  Uiso   1.00
H214   H     0.72923   0.31115   0.23184   0.00000  Uiso   1.00
H215   H     0.70069   0.03022   0.49377   0.00000  Uiso   1.00
H216   H     0.61222   0.86724   0.49238   0.00000  Uiso   1.00
H217   H     0.81994   0.01792   0.55234   0.00000  Uiso   1.00
H218   H     0.66050   0.21448   0.45092   0.00000  Uiso   1.00
H219   H     0.52906   0.67237   0.46828   0.00000  Uiso   1.00
H220   H     0.96705   0.99012   0.59470   0.00000  Uiso   1.00
H221   H     0.63084   0.40461   0.38083   0.00000  Uiso   1.00
O222   O     0.52214   0.51643   0.38974   0.00000  Uiso   1.00
O223   O     0.09677   0.93332   0.55560   0.00000  Uiso   1.00
O224   O     0.65567   0.47714   0.27501   0.00000  Uiso   1.00
N225   N     0.61642   0.62328   0.35453   0.00000  Uiso   1.00
N226   N     0.02591   0.92033   0.47274   0.00000  Uiso   1.00
N227   N     0.71160   0.30787   0.27279   0.00000  Uiso   1.00
N228   N     0.56348   0.67357   0.43470   0.00000  Uiso   1.00
N229   N     0.97297   0.97063   0.55291   0.00000  Uiso   1.00
N230   N     0.65866   0.35816   0.35296   0.00000  Uiso   1.00
C231   C     0.96582   0.45253   0.66485   0.00000  Uiso   1.00
C232   C     0.02733   0.37687   0.64746   0.00000  Uiso   1.00
C233   C     0.04911   0.28510   0.67729   0.00000  Uiso   1.00
C234   C     0.10649   0.22667   0.65431   0.00000  Uiso   1.00
C235   C     0.19675   0.10425   0.63506   0.00000  Uiso   1.00
C236   C     0.91429   0.45623   0.61357   0.00000  Uiso   1.00
C237   C     0.84102   0.43119   0.61490   0.00000  Uiso   1.00
C238   C     0.80324   0.43958   0.56339   0.00000  Uiso   1.00
C239   C     0.71798   0.44044   0.49152   0.00000  Uiso   1.00
C240   C     0.99915   0.56521   0.66920   0.00000  Uiso   1.00
C241   C     0.99722   0.63183   0.71731   0.00000  Uiso   1.00
C242   C     0.03087   0.73199   0.71264   0.00000  Uiso   1.00
C243   C     0.07737   0.90206   0.72715   0.00000  Uiso   1.00
C244   C     0.02900   0.51196   0.57101   0.00000  Uiso   1.00
C245   C     0.06164   0.40915   0.59649   0.00000  Uiso   1.00
C246   C     0.11901   0.35085   0.57347   0.00000  Uiso   1.00
C247   C     0.14087   0.25901   0.60325   0.00000  Uiso   1.00
C248   C     0.94860   0.48850   0.56260   0.00000  Uiso   1.00
C249   C     0.91092   0.49694   0.51108   0.00000  Uiso   1.00
C250   C     0.83762   0.47192   0.51233   0.00000  Uiso   1.00
C251   C     0.03346   0.59749   0.61823   0.00000  Uiso   1.00
C252   C     0.06712   0.69757   0.61349   0.00000  Uiso   1.00
C253   C     0.06525   0.76433   0.66158   0.00000  Uiso   1.00
H254   H     0.93910   0.42740   0.70453   0.00000  Uiso   1.00
H255   H     0.02254   0.26014   0.71673   0.00000  Uiso   1.00
H256   H     0.81448   0.40622   0.65435   0.00000  Uiso   1.00
H257   H     0.97065   0.60682   0.75675   0.00000  Uiso   1.00
H258   H     0.13015   0.08892   0.70777   0.00000  Uiso   1.00
H259   H     0.69144   0.39697   0.57625   0.00000  Uiso   1.00
H260   H     0.02077   0.81998   0.79216   0.00000  Uiso   1.00
H261   H     0.05572   0.53709   0.53132   0.00000  Uiso   1.00
H262   H     0.14556   0.37585   0.53402   0.00000  Uiso   1.00
H263   H     0.93749   0.52193   0.47164   0.00000  Uiso   1.00
H264   H     0.09367   0.72253   0.57404   0.00000  Uiso   1.00
H265   H     0.23000   0.18282   0.55947   0.00000  Uiso   1.00
H266   H     0.79128   0.49088   0.42795   0.00000  Uiso   1.00
H267   H     0.12062   0.91389   0.64387   0.00000  Uiso   1.00
O268   O     0.23705   0.02780   0.63851   0.00000  Uiso   1.00
O269   O     0.66148   0.43198   0.46596   0.00000  Uiso   1.00
O270   O     0.09355   0.98695   0.74924   0.00000  Uiso   1.00
N271   N     0.14133   0.13316   0.67250   0.00000  Uiso   1.00
N272   N     0.73117   0.42115   0.54954   0.00000  Uiso   1.00
N273   N     0.03904   0.81664   0.75140   0.00000  Uiso   1.00
N274   N     0.19506   0.18369   0.59271   0.00000  Uiso   1.00
N275   N     0.78489   0.47169   0.46974   0.00000  Uiso   1.00
N276   N     0.09277   0.86717   0.67160   0.00000  Uiso   1.00
C277   C     0.21073   0.05394   0.85962   0.00000  Uiso   1.00
C278   C     0.27131   0.13060   0.87780   0.00000  Uiso   1.00
C279   C     0.29275   0.22308   0.84844   0.00000  Uiso   1.00
C280   C     0.34927   0.28237   0.87213   0.00000  Uiso   1.00
C281   C     0.43817   0.40632   0.89259   0.00000  Uiso   1.00
C282   C     0.15845   0.04875   0.91038   0.00000  Uiso   1.00
C283   C     0.08500   0.07239   0.90841   0.00000  Uiso   1.00
C284   C     0.04652   0.06276   0.95953   0.00000  Uiso   1.00
C285   C     0.96019   0.05956   0.03056   0.00000  Uiso   1.00
C286   C     0.24509   0.94195   0.85528   0.00000  Uiso   1.00
C287   C     0.24446   0.87578   0.80697   0.00000  Uiso   1.00
C288   C     0.27890   0.77623   0.81169   0.00000  Uiso   1.00
C289   C     0.32709   0.60721   0.79717   0.00000  Uiso   1.00
C290   C     0.27299   0.99480   0.95390   0.00000  Uiso   1.00
C291   C     0.30512   0.09847   0.92901   0.00000  Uiso   1.00
C292   C     0.36163   0.15764   0.95275   0.00000  Uiso   1.00
C293   C     0.38315   0.25019   0.92343   0.00000  Uiso   1.00
C294   C     0.19226   0.01662   0.96159   0.00000  Uiso   1.00
C295   C     0.15388   0.00695   0.01272   0.00000  Uiso   1.00
C296   C     0.08039   0.03058   0.01083   0.00000  Uiso   1.00
C297   C     0.27890   0.90983   0.90649   0.00000  Uiso   1.00
C298   C     0.31334   0.81035   0.91128   0.00000  Uiso   1.00
C299   C     0.31278   0.74405   0.86300   0.00000  Uiso   1.00
H300   H     0.18440   0.07895   0.81975   0.00000  Uiso   1.00
H301   H     0.26657   0.24792   0.80881   0.00000  Uiso   1.00
H302   H     0.05885   0.09724   0.86877   0.00000  Uiso   1.00
H303   H     0.21829   0.90067   0.76735   0.00000  Uiso   1.00
H304   H     0.37255   0.42110   0.81928   0.00000  Uiso   1.00
H305   H     0.93457   0.10335   0.94571   0.00000  Uiso   1.00
H306   H     0.27077   0.68885   0.73184   0.00000  Uiso   1.00
H307   H     0.29931   0.96978   0.99377   0.00000  Uiso   1.00
H308   H     0.38778   0.13276   0.99238   0.00000  Uiso   1.00
H309   H     0.18006   0.98208   0.05234   0.00000  Uiso   1.00
H310   H     0.33950   0.78552   0.95092   0.00000  Uiso   1.00
H311   H     0.47094   0.32763   0.96828   0.00000  Uiso   1.00
H312   H     0.03295   0.00988   0.09470   0.00000  Uiso   1.00
H313   H     0.36916   0.59539   0.88083   0.00000  Uiso   1.00
O314   O     0.47786   0.48357   0.88974   0.00000  Uiso   1.00
O315   O     0.90323   0.06668   0.05560   0.00000  Uiso   1.00
O316   O     0.34433   0.52286   0.77501   0.00000  Uiso   1.00
N317   N     0.38358   0.37672   0.85453   0.00000  Uiso   1.00
N318   N     0.97409   0.07967   0.97274   0.00000  Uiso   1.00
N319   N     0.28840   0.69213   0.77279   0.00000  Uiso   1.00
N320   N     0.43652   0.32643   0.93470   0.00000  Uiso   1.00
N321   N     0.02703   0.02937   0.05291   0.00000  Uiso   1.00
N322   N     0.34134   0.64184   0.85296   0.00000  Uiso   1.00
C323   C     0.03418   0.54747   0.16485   0.00000  Uiso   1.00
C324   C     0.97267   0.62313   0.14746   0.00000  Uiso   1.00
C325   C     0.95089   0.71490   0.17729   0.00000  Uiso   1.00
C326   C     0.89351   0.77333   0.15431   0.00000  Uiso   1.00
C327   C     0.80325   0.89575   0.13506   0.00000  Uiso   1.00
C328   C     0.08571   0.54377   0.11357   0.00000  Uiso   1.00
C329   C     0.15898   0.56881   0.11490   0.00000  Uiso   1.00
C330   C     0.19676   0.56042   0.06339   0.00000  Uiso   1.00
C331   C     0.28202   0.55956   0.99152   0.00000  Uiso   1.00
C332   C     0.00085   0.43479   0.16920   0.00000  Uiso   1.00
C333   C     0.00278   0.36817   0.21731   0.00000  Uiso   1.00
C334   C     0.96913   0.26801   0.21264   0.00000  Uiso   1.00
C335   C     0.92263   0.09794   0.22715   0.00000  Uiso   1.00
C336   C     0.97100   0.48804   0.07101   0.00000  Uiso   1.00
C337   C     0.93836   0.59085   0.09649   0.00000  Uiso   1.00
C338   C     0.88099   0.64915   0.07347   0.00000  Uiso   1.00
C339   C     0.85913   0.74099   0.10325   0.00000  Uiso   1.00
C340   C     0.05140   0.51150   0.06260   0.00000  Uiso   1.00
C341   C     0.08908   0.50306   0.01108   0.00000  Uiso   1.00
C342   C     0.16238   0.52808   0.01233   0.00000  Uiso   1.00
C343   C     0.96654   0.40251   0.11823   0.00000  Uiso   1.00
C344   C     0.93288   0.30243   0.11349   0.00000  Uiso   1.00
C345   C     0.93475   0.23567   0.16158   0.00000  Uiso   1.00
H346   H     0.06090   0.57260   0.20453   0.00000  Uiso   1.00
H347   H     0.97746   0.73986   0.21673   0.00000  Uiso   1.00
H348   H     0.18552   0.59378   0.15435   0.00000  Uiso   1.00
H349   H     0.02935   0.39318   0.25675   0.00000  Uiso   1.00
H350   H     0.86985   0.91108   0.20777   0.00000  Uiso   1.00
H351   H     0.30856   0.60303   0.07625   0.00000  Uiso   1.00
H352   H     0.97923   0.18002   0.29216   0.00000  Uiso   1.00
H353   H     0.94428   0.46291   0.03132   0.00000  Uiso   1.00
H354   H     0.85444   0.62415   0.03402   0.00000  Uiso   1.00
H355   H     0.06251   0.47807   0.97164   0.00000  Uiso   1.00
H356   H     0.90633   0.27747   0.07404   0.00000  Uiso   1.00
H357   H     0.77000   0.81718   0.05947   0.00000  Uiso   1.00
H358   H     0.20872   0.50912   0.92795   0.00000  Uiso   1.00
H359   H     0.87938   0.08611   0.14387   0.00000  Uiso   1.00
O360   O     0.76295   0.97220   0.13851   0.00000  Uiso   1.00
O361   O     0.33852   0.56802   0.96596   0.00000  Uiso   1.00
O362   O     0.90645   0.01305   0.24924   0.00000  Uiso   1.00
N363   N     0.85867   0.86684   0.17250   0.00000  Uiso   1.00
N364   N     0.26883   0.57885   0.04954   0.00000  Uiso   1.00
N365   N     0.96096   0.18336   0.25140   0.00000  Uiso   1.00
N366   N     0.80494   0.81631   0.09271   0.00000  Uiso   1.00
N367   N     0.21511   0.52831   0.96974   0.00000  Uiso   1.00
N368   N     0.90723   0.13283   0.17160   0.00000  Uiso   1.00
