data_job_06520
_audit_creation_date              2018-12-19
_audit_creation_method            'Materials Studio'
_symmetry_space_group_name_H-M    'P1'
_symmetry_Int_Tables_number       1
_symmetry_cell_setting            triclinic
loop_
_symmetry_equiv_pos_as_xyz
  x,y,z
_cell_length_a                    18.3579
_cell_length_b                    21.8751
_cell_length_c                    23.1087
_cell_angle_alpha                 117.9065
_cell_angle_beta                  103.7840
_cell_angle_gamma                 80.8120
loop_
_atom_site_label
_atom_site_type_symbol
_atom_site_fract_x
_atom_site_fract_y
_atom_site_fract_z
_atom_site_U_iso_or_equiv
_atom_site_adp_type
_atom_site_occupancy
C1     C     0.82220   0.74702   0.00322   0.00000  Uiso   1.00
C2     C     0.86982   0.79967   0.00584   0.00000  Uiso   1.00
C3     C     0.86580   0.87056   0.04651   0.00000  Uiso   1.00
C4     C     0.91414   0.90989   0.04149   0.00000  Uiso   1.00
C5     C     0.98037   0.99629   0.05224   0.00000  Uiso   1.00
C6     C     0.78303   0.70929   0.93074   0.00000  Uiso   1.00
C7     C     0.70604   0.70419   0.90827   0.00000  Uiso   1.00
C8     C     0.68133   0.66743   0.84003   0.00000  Uiso   1.00
C9     C     0.61283   0.61347   0.73419   0.00000  Uiso   1.00
C10    C     0.87748   0.69358   0.01742   0.00000  Uiso   1.00
C11    C     0.87988   0.67526   0.06782   0.00000  Uiso   1.00
C12    C     0.93467   0.62526   0.07254   0.00000  Uiso   1.00
C13    C     0.01280   0.54692   0.10128   0.00000  Uiso   1.00
C14    C     0.91521   0.69081   0.92199   0.00000  Uiso   1.00
C15    C     0.92033   0.76913   0.96171   0.00000  Uiso   1.00
C16    C     0.96870   0.80837   0.95663   0.00000  Uiso   1.00
C17    C     0.96475   0.87931   0.99729   0.00000  Uiso   1.00
C18    C     0.83355   0.67876   0.88661   0.00000  Uiso   1.00
C19    C     0.80894   0.64200   0.81839   0.00000  Uiso   1.00
C20    C     0.73194   0.63684   0.79583   0.00000  Uiso   1.00
C21    C     0.92800   0.66305   0.97329   0.00000  Uiso   1.00
C22    C     0.98279   0.61307   0.97794   0.00000  Uiso   1.00
C23    C     0.98528   0.59467   0.02834   0.00000  Uiso   1.00
H24    H     0.78287   0.77079   0.03757   0.00000  Uiso   1.00
H25    H     0.82669   0.89417   0.08065   0.00000  Uiso   1.00
H26    H     0.66696   0.72782   0.94243   0.00000  Uiso   1.00
H27    H     0.84078   0.69890   0.10195   0.00000  Uiso   1.00
H28    H     0.89753   0.01750   0.10892   0.00000  Uiso   1.00
H29    H     0.56075   0.66671   0.81749   0.00000  Uiso   1.00
H30    H     0.92727   0.60573   0.15388   0.00000  Uiso   1.00
H31    H     0.95454   0.66703   0.88763   0.00000  Uiso   1.00
H32    H     0.00778   0.78473   0.92248   0.00000  Uiso   1.00
H33    H     0.84805   0.61837   0.78426   0.00000  Uiso   1.00
H34    H     0.02187   0.58945   0.94378   0.00000  Uiso   1.00
H35    H     0.04451   0.92867   0.98055   0.00000  Uiso   1.00
H36    H     0.70772   0.57788   0.68911   0.00000  Uiso   1.00
H37    H     0.07425   0.51690   0.02550   0.00000  Uiso   1.00
O38    O     0.00294   0.05238   0.07035   0.00000  Uiso   1.00
O39    O     0.56108   0.59215   0.68800   0.00000  Uiso   1.00
O40    O     0.04195   0.51214   0.12933   0.00000  Uiso   1.00
N41    N     0.92483   0.98044   0.07394   0.00000  Uiso   1.00
N42    N     0.60995   0.65249   0.80146   0.00000  Uiso   1.00
N43    N     0.95260   0.59545   0.11594   0.00000  Uiso   1.00
N44    N     0.00392   0.93264   0.00486   0.00000  Uiso   1.00
N45    N     0.68904   0.60469   0.73239   0.00000  Uiso   1.00
N46    N     0.03169   0.54766   0.04687   0.00000  Uiso   1.00
C47    C     0.43517   0.00794   0.15133   0.00000  Uiso   1.00
C48    C     0.44123   0.95933   0.07898   0.00000  Uiso   1.00
C49    C     0.49472   0.96073   0.04618   0.00000  Uiso   1.00
C50    C     0.49075   0.91189   0.98000   0.00000  Uiso   1.00
C51    C     0.50859   0.84379   0.87254   0.00000  Uiso   1.00
C52    C     0.35584   0.04177   0.14962   0.00000  Uiso   1.00
C53    C     0.33754   0.11249   0.17622   0.00000  Uiso   1.00
C54    C     0.26169   0.13304   0.16953   0.00000  Uiso   1.00
C55    C     0.14696   0.19294   0.17178   0.00000  Uiso   1.00
C56    C     0.43840   0.96158   0.18483   0.00000  Uiso   1.00
C57    C     0.48949   0.96489   0.24105   0.00000  Uiso   1.00
C58    C     0.48313   0.91794   0.26401   0.00000  Uiso   1.00
C59    C     0.49658   0.85334   0.32093   0.00000  Uiso   1.00
C60    C     0.33299   0.91870   0.09214   0.00000  Uiso   1.00
C61    C     0.38573   0.91086   0.04683   0.00000  Uiso   1.00
C62    C     0.38168   0.86199   0.98069   0.00000  Uiso   1.00
C63    C     0.43516   0.86332   0.94780   0.00000  Uiso   1.00
C64    C     0.30035   0.99330   0.11747   0.00000  Uiso   1.00
C65    C     0.22450   0.01375   0.11074   0.00000  Uiso   1.00
C66    C     0.20609   0.08448   0.13732   0.00000  Uiso   1.00
C67    C     0.38290   0.91311   0.15268   0.00000  Uiso   1.00
C68    C     0.37645   0.86615   0.17556   0.00000  Uiso   1.00
C69    C     0.42753   0.86938   0.23181   0.00000  Uiso   1.00
H70    H     0.47837   0.04569   0.17636   0.00000  Uiso   1.00
H71    H     0.53766   0.99826   0.07107   0.00000  Uiso   1.00
H72    H     0.38050   0.14999   0.20110   0.00000  Uiso   1.00
H73    H     0.53243   0.00241   0.26592   0.00000  Uiso   1.00
H74    H     0.57890   0.92431   0.94015   0.00000  Uiso   1.00
H75    H     0.24753   0.24424   0.21436   0.00000  Uiso   1.00
H76    H     0.56790   0.93305   0.35103   0.00000  Uiso   1.00
H77    H     0.28978   0.88096   0.06711   0.00000  Uiso   1.00
H78    H     0.33873   0.82449   0.95583   0.00000  Uiso   1.00
H79    H     0.18157   0.97622   0.08586   0.00000  Uiso   1.00
H80    H     0.33350   0.82864   0.15067   0.00000  Uiso   1.00
H81    H     0.41744   0.78328   0.84661   0.00000  Uiso   1.00
H82    H     0.08606   0.10321   0.12082   0.00000  Uiso   1.00
H83    H     0.40644   0.79201   0.25749   0.00000  Uiso   1.00
O84    O     0.53376   0.81963   0.82214   0.00000  Uiso   1.00
O85    O     0.09901   0.23937   0.18190   0.00000  Uiso   1.00
O86    O     0.51933   0.83109   0.36121   0.00000  Uiso   1.00
N87    N     0.53420   0.89886   0.93341   0.00000  Uiso   1.00
N88    N     0.22438   0.19798   0.18977   0.00000  Uiso   1.00
N89    N     0.52389   0.90705   0.31756   0.00000  Uiso   1.00
N90    N     0.44731   0.82297   0.88308   0.00000  Uiso   1.00
N91    N     0.13750   0.12209   0.13944   0.00000  Uiso   1.00
N92    N     0.43701   0.83116   0.26723   0.00000  Uiso   1.00
C93    C     0.22839   0.51494   0.37100   0.00000  Uiso   1.00
C94    C     0.22380   0.46634   0.40031   0.00000  Uiso   1.00
C95    C     0.16420   0.42573   0.38378   0.00000  Uiso   1.00
C96    C     0.17078   0.38478   0.41618   0.00000  Uiso   1.00
C97    C     0.15392   0.30940   0.45454   0.00000  Uiso   1.00
C98    C     0.24185   0.58619   0.43011   0.00000  Uiso   1.00
C99    C     0.19743   0.64633   0.43863   0.00000  Uiso   1.00
C100   C     0.21921   0.70627   0.49611   0.00000  Uiso   1.00
C101   C     0.23040   0.81696   0.58070   0.00000  Uiso   1.00
C102   C     0.30015   0.49195   0.34218   0.00000  Uiso   1.00
C103   C     0.30476   0.47288   0.27675   0.00000  Uiso   1.00
C104   C     0.37563   0.45350   0.26021   0.00000  Uiso   1.00
C105   C     0.47733   0.41787   0.20826   0.00000  Uiso   1.00
C106   C     0.34605   0.51445   0.45795   0.00000  Uiso   1.00
C107   C     0.28771   0.46608   0.44754   0.00000  Uiso   1.00
C108   C     0.29439   0.42519   0.47998   0.00000  Uiso   1.00
C109   C     0.23481   0.38452   0.46349   0.00000  Uiso   1.00
C110   C     0.30576   0.58593   0.47734   0.00000  Uiso   1.00
C111   C     0.32761   0.64579   0.53482   0.00000  Uiso   1.00
C112   C     0.28324   0.70601   0.54343   0.00000  Uiso   1.00
C113   C     0.36406   0.49169   0.38940   0.00000  Uiso   1.00
C114   C     0.43494   0.47234   0.37295   0.00000  Uiso   1.00
C115   C     0.43965   0.45323   0.30752   0.00000  Uiso   1.00
H116   H     0.17863   0.51515   0.33424   0.00000  Uiso   1.00
H117   H     0.11475   0.42595   0.34723   0.00000  Uiso   1.00
H118   H     0.14798   0.64652   0.40207   0.00000  Uiso   1.00
H119   H     0.25529   0.47309   0.24022   0.00000  Uiso   1.00
H120   H     0.07210   0.32696   0.38249   0.00000  Uiso   1.00
H121   H     0.14217   0.79205   0.49810   0.00000  Uiso   1.00
H122   H     0.36846   0.42634   0.15681   0.00000  Uiso   1.00
H123   H     0.39581   0.51425   0.49472   0.00000  Uiso   1.00
H124   H     0.34385   0.42500   0.51652   0.00000  Uiso   1.00
H125   H     0.37708   0.64557   0.57136   0.00000  Uiso   1.00
H126   H     0.48438   0.47214   0.40951   0.00000  Uiso   1.00
H127   H     0.25805   0.32619   0.51989   0.00000  Uiso   1.00
H128   H     0.32812   0.79128   0.63550   0.00000  Uiso   1.00
H129   H     0.55440   0.42557   0.29421   0.00000  Uiso   1.00
O130   O     0.12696   0.26790   0.46265   0.00000  Uiso   1.00
O131   O     0.21890   0.87808   0.61432   0.00000  Uiso   1.00
O132   O     0.51578   0.39828   0.16656   0.00000  Uiso   1.00
N133   N     0.12300   0.33902   0.41182   0.00000  Uiso   1.00
N134   N     0.18851   0.77385   0.51992   0.00000  Uiso   1.00
N135   N     0.40007   0.43196   0.20085   0.00000  Uiso   1.00
N136   N     0.22306   0.33860   0.48576   0.00000  Uiso   1.00
N137   N     0.28856   0.77343   0.59385   0.00000  Uiso   1.00
N138   N     0.50012   0.43154   0.27478   0.00000  Uiso   1.00
C139   C     0.76689   0.53638   0.29496   0.00000  Uiso   1.00
C140   C     0.78425   0.49479   0.22489   0.00000  Uiso   1.00
C141   C     0.74067   0.44420   0.17131   0.00000  Uiso   1.00
C142   C     0.76618   0.41212   0.11132   0.00000  Uiso   1.00
C143   C     0.78296   0.34484   0.00344   0.00000  Uiso   1.00
C144   C     0.76522   0.61242   0.31053   0.00000  Uiso   1.00
C145   C     0.70564   0.66072   0.32898   0.00000  Uiso   1.00
C146   C     0.71513   0.72767   0.34109   0.00000  Uiso   1.00
C147   C     0.70239   0.84301   0.36623   0.00000  Uiso   1.00
C148   C     0.83537   0.52456   0.34172   0.00000  Uiso   1.00
C149   C     0.83477   0.49901   0.38640   0.00000  Uiso   1.00
C150   C     0.90333   0.49200   0.42478   0.00000  Uiso   1.00
C151   C     0.99950   0.47094   0.49833   0.00000  Uiso   1.00
C152   C     0.88970   0.56938   0.28368   0.00000  Uiso   1.00
C153   C     0.85095   0.51272   0.21876   0.00000  Uiso   1.00
C154   C     0.87654   0.48071   0.15883   0.00000  Uiso   1.00
C155   C     0.83300   0.43007   0.10518   0.00000  Uiso   1.00
C156   C     0.83192   0.63034   0.30441   0.00000  Uiso   1.00
C157   C     0.84151   0.69723   0.31650   0.00000  Uiso   1.00
C158   C     0.78196   0.74562   0.33495   0.00000  Uiso   1.00
C159   C     0.90208   0.54248   0.33559   0.00000  Uiso   1.00
C160   C     0.97065   0.53552   0.37391   0.00000  Uiso   1.00
C161   C     0.97015   0.50996   0.41864   0.00000  Uiso   1.00
H162   H     0.71496   0.52244   0.29973   0.00000  Uiso   1.00
H163   H     0.68904   0.43035   0.17607   0.00000  Uiso   1.00
H164   H     0.65403   0.64684   0.33372   0.00000  Uiso   1.00
H165   H     0.78314   0.48515   0.39113   0.00000  Uiso   1.00
H166   H     0.68971   0.33618   0.03627   0.00000  Uiso   1.00
H167   H     0.61588   0.79266   0.36870   0.00000  Uiso   1.00
H168   H     0.88815   0.45171   0.48976   0.00000  Uiso   1.00
H169   H     0.94164   0.58334   0.27891   0.00000  Uiso   1.00
H170   H     0.92816   0.49459   0.15411   0.00000  Uiso   1.00
H171   H     0.89314   0.71108   0.31176   0.00000  Uiso   1.00
H172   H     0.02225   0.54939   0.36916   0.00000  Uiso   1.00
H173   H     0.88379   0.38832   0.01844   0.00000  Uiso   1.00
H174   H     0.80996   0.84481   0.35088   0.00000  Uiso   1.00
H175   H     0.08222   0.50385   0.47193   0.00000  Uiso   1.00
O176   O     0.77378   0.30278   0.94563   0.00000  Uiso   1.00
O177   O     0.67693   0.90168   0.38178   0.00000  Uiso   1.00
O178   O     0.03413   0.45436   0.54059   0.00000  Uiso   1.00
N179   N     0.73725   0.36062   0.04921   0.00000  Uiso   1.00
N180   N     0.66821   0.78740   0.36000   0.00000  Uiso   1.00
N181   N     0.92276   0.46866   0.47319   0.00000  Uiso   1.00
N182   N     0.84168   0.38867   0.03961   0.00000  Uiso   1.00
N183   N     0.77265   0.81546   0.35041   0.00000  Uiso   1.00
N184   N     0.02719   0.49672   0.46359   0.00000  Uiso   1.00
C185   C     0.40929   0.16894   0.76486   0.00000  Uiso   1.00
C186   C     0.47896   0.17976   0.74640   0.00000  Uiso   1.00
C187   C     0.47944   0.19549   0.69487   0.00000  Uiso   1.00
C188   C     0.54899   0.20338   0.68608   0.00000  Uiso   1.00
C189   C     0.64703   0.22137   0.65115   0.00000  Uiso   1.00
C190   C     0.41164   0.22033   0.83802   0.00000  Uiso   1.00
C191   C     0.35552   0.27015   0.86352   0.00000  Uiso   1.00
C192   C     0.36840   0.31217   0.93187   0.00000  Uiso   1.00
C193   C     0.36192   0.39311   0.03919   0.00000  Uiso   1.00
C194   C     0.42131   0.09716   0.76227   0.00000  Uiso   1.00
C195   C     0.37330   0.04343   0.72410   0.00000  Uiso   1.00
C196   C     0.39431   0.98176   0.72868   0.00000  Uiso   1.00
C197   C     0.40283   0.87147   0.71839   0.00000  Uiso   1.00
C198   C     0.53194   0.15497   0.84089   0.00000  Uiso   1.00
C199   C     0.54558   0.17218   0.78769   0.00000  Uiso   1.00
C200   C     0.61514   0.18004   0.77898   0.00000  Uiso   1.00
C201   C     0.61573   0.19577   0.72745   0.00000  Uiso   1.00
C202   C     0.47826   0.21274   0.87931   0.00000  Uiso   1.00
C203   C     0.49122   0.25470   0.94764   0.00000  Uiso   1.00
C204   C     0.43514   0.30457   0.97324   0.00000  Uiso   1.00
C205   C     0.48793   0.08957   0.80356   0.00000  Uiso   1.00
C206   C     0.50901   0.02798   0.80821   0.00000  Uiso   1.00
C207   C     0.46105   0.97416   0.77005   0.00000  Uiso   1.00
H208   H     0.35742   0.17485   0.73271   0.00000  Uiso   1.00
H209   H     0.42787   0.20137   0.66292   0.00000  Uiso   1.00
H210   H     0.30397   0.27600   0.83156   0.00000  Uiso   1.00
H211   H     0.32175   0.04932   0.69215   0.00000  Uiso   1.00
H212   H     0.53536   0.22744   0.60377   0.00000  Uiso   1.00
H213   H     0.27410   0.38481   0.95935   0.00000  Uiso   1.00
H214   H     0.31159   0.90681   0.66538   0.00000  Uiso   1.00
H215   H     0.58381   0.14906   0.87304   0.00000  Uiso   1.00
H216   H     0.66669   0.17416   0.81095   0.00000  Uiso   1.00
H217   H     0.54278   0.24881   0.97958   0.00000  Uiso   1.00
H218   H     0.56057   0.02213   0.84017   0.00000  Uiso   1.00
H219   H     0.72919   0.20537   0.72392   0.00000  Uiso   1.00
H220   H     0.46793   0.36273   0.07949   0.00000  Uiso   1.00
H221   H     0.50542   0.88473   0.78552   0.00000  Uiso   1.00
O222   O     0.68271   0.23340   0.62048   0.00000  Uiso   1.00
O223   O     0.33994   0.43985   0.08698   0.00000  Uiso   1.00
O224   O     0.38913   0.81273   0.70130   0.00000  Uiso   1.00
N225   N     0.56961   0.21879   0.64056   0.00000  Uiso   1.00
N226   N     0.32535   0.36592   0.97300   0.00000  Uiso   1.00
N227   N     0.36039   0.91904   0.69818   0.00000  Uiso   1.00
N228   N     0.67390   0.20691   0.70521   0.00000  Uiso   1.00
N229   N     0.42965   0.35405   0.03765   0.00000  Uiso   1.00
N230   N     0.46469   0.90716   0.76283   0.00000  Uiso   1.00
C231   C     0.93350   0.23666   0.60324   0.00000  Uiso   1.00
C232   C     0.93654   0.25395   0.67579   0.00000  Uiso   1.00
C233   C     0.92646   0.31968   0.72690   0.00000  Uiso   1.00
C234   C     0.93137   0.32464   0.78982   0.00000  Uiso   1.00
C235   C     0.93385   0.36041   0.90074   0.00000  Uiso   1.00
C236   C     0.87390   0.18360   0.56208   0.00000  Uiso   1.00
C237   C     0.81116   0.19017   0.51757   0.00000  Uiso   1.00
C238   C     0.76335   0.13590   0.48477   0.00000  Uiso   1.00
C239   C     0.66862   0.06242   0.41912   0.00000  Uiso   1.00
C240   C     0.00832   0.19837   0.58617   0.00000  Uiso   1.00
C241   C     0.05859   0.21736   0.56189   0.00000  Uiso   1.00
C242   C     0.12394   0.17551   0.54936   0.00000  Uiso   1.00
C243   C     0.23791   0.12498   0.52110   0.00000  Uiso   1.00
C244   C     0.96015   0.12859   0.62413   0.00000  Uiso   1.00
C245   C     0.95101   0.19525   0.68713   0.00000  Uiso   1.00
C246   C     0.95595   0.20011   0.75000   0.00000  Uiso   1.00
C247   C     0.94588   0.26583   0.80119   0.00000  Uiso   1.00
C248   C     0.88838   0.12490   0.57342   0.00000  Uiso   1.00
C249   C     0.84065   0.07060   0.54068   0.00000  Uiso   1.00
C250   C     0.77786   0.07709   0.49614   0.00000  Uiso   1.00
C251   C     0.02280   0.13967   0.59751   0.00000  Uiso   1.00
C252   C     0.08808   0.09779   0.58501   0.00000  Uiso   1.00
C253   C     0.13845   0.11670   0.56072   0.00000  Uiso   1.00
H254   H     0.92223   0.28236   0.59441   0.00000  Uiso   1.00
H255   H     0.91525   0.36510   0.71809   0.00000  Uiso   1.00
H256   H     0.79998   0.23560   0.50880   0.00000  Uiso   1.00
H257   H     0.04737   0.26278   0.55312   0.00000  Uiso   1.00
H258   H     0.91387   0.43093   0.86022   0.00000  Uiso   1.00
H259   H     0.67083   0.15787   0.41890   0.00000  Uiso   1.00
H260   H     0.19250   0.21520   0.51235   0.00000  Uiso   1.00
H261   H     0.97142   0.08288   0.63296   0.00000  Uiso   1.00
H262   H     0.96715   0.15467   0.75877   0.00000  Uiso   1.00
H263   H     0.85188   0.02518   0.54947   0.00000  Uiso   1.00
H264   H     0.09927   0.05236   0.59379   0.00000  Uiso   1.00
H265   H     0.95599   0.26014   0.89323   0.00000  Uiso   1.00
H266   H     0.71295   0.98709   0.45190   0.00000  Uiso   1.00
H267   H     0.23462   0.04441   0.54536   0.00000  Uiso   1.00
O268   O     0.93120   0.39636   0.95878   0.00000  Uiso   1.00
O269   O     0.61235   0.03811   0.37977   0.00000  Uiso   1.00
O270   O     0.29677   0.11332   0.50239   0.00000  Uiso   1.00
N271   N     0.92438   0.38089   0.85073   0.00000  Uiso   1.00
N272   N     0.69715   0.12560   0.43812   0.00000  Uiso   1.00
N273   N     0.18486   0.17918   0.52548   0.00000  Uiso   1.00
N274   N     0.94705   0.28899   0.86849   0.00000  Uiso   1.00
N275   N     0.71982   0.03370   0.45588   0.00000  Uiso   1.00
N276   N     0.20753   0.08728   0.54324   0.00000  Uiso   1.00
C277   C     0.15194   0.14627   0.83640   0.00000  Uiso   1.00
C278   C     0.08764   0.14494   0.86707   0.00000  Uiso   1.00
C279   C     0.03289   0.09669   0.83670   0.00000  Uiso   1.00
C280   C     0.97890   0.10440   0.87305   0.00000  Uiso   1.00
C281   C     0.87897   0.09409   0.91090   0.00000  Uiso   1.00
C282   C     0.22395   0.14441   0.88492   0.00000  Uiso   1.00
C283   C     0.28381   0.09573   0.86953   0.00000  Uiso   1.00
C284   C     0.34457   0.10300   0.92091   0.00000  Uiso   1.00
C285   C     0.45628   0.09191   0.98644   0.00000  Uiso   1.00
C286   C     0.14524   0.21763   0.83848   0.00000  Uiso   1.00
C287   C     0.13893   0.23050   0.78407   0.00000  Uiso   1.00
C288   C     0.13344   0.29942   0.79635   0.00000  Uiso   1.00
C289   C     0.12293   0.40200   0.78979   0.00000  Uiso   1.00
C290   C     0.15341   0.24575   0.95499   0.00000  Uiso   1.00
C291   C     0.08845   0.19897   0.93149   0.00000  Uiso   1.00
C292   C     0.03452   0.20676   0.96790   0.00000  Uiso   1.00
C293   C     0.97970   0.15853   0.93758   0.00000  Uiso   1.00
C294   C     0.22475   0.19844   0.94933   0.00000  Uiso   1.00
C295   C     0.28544   0.20579   0.00074   0.00000  Uiso   1.00
C296   C     0.34537   0.15713   0.98544   0.00000  Uiso   1.00
C297   C     0.14604   0.27166   0.90290   0.00000  Uiso   1.00
C298   C     0.14056   0.34057   0.91527   0.00000  Uiso   1.00
C299   C     0.13424   0.35355   0.86088   0.00000  Uiso   1.00
H300   H     0.15132   0.10420   0.78626   0.00000  Uiso   1.00
H301   H     0.03230   0.05488   0.78685   0.00000  Uiso   1.00
H302   H     0.28318   0.05392   0.81968   0.00000  Uiso   1.00
H303   H     0.13832   0.18868   0.73423   0.00000  Uiso   1.00
H304   H     0.90071   0.02401   0.81592   0.00000  Uiso   1.00
H305   H     0.42971   0.02201   0.88515   0.00000  Uiso   1.00
H306   H     0.12425   0.30616   0.70495   0.00000  Uiso   1.00
H307   H     0.15404   0.28782   0.00514   0.00000  Uiso   1.00
H308   H     0.03515   0.24858   0.01775   0.00000  Uiso   1.00
H309   H     0.28604   0.24762   0.05058   0.00000  Uiso   1.00
H310   H     0.14118   0.38237   0.96512   0.00000  Uiso   1.00
H311   H     0.90303   0.18122   0.00333   0.00000  Uiso   1.00
H312   H     0.43204   0.17922   0.07255   0.00000  Uiso   1.00
H313   H     0.12657   0.46338   0.89235   0.00000  Uiso   1.00
O314   O     0.82363   0.07348   0.91398   0.00000  Uiso   1.00
O315   O     0.51767   0.07085   0.00479   0.00000  Uiso   1.00
O316   O     0.11690   0.44366   0.76837   0.00000  Uiso   1.00
N317   N     0.91756   0.06641   0.85829   0.00000  Uiso   1.00
N318   N     0.41215   0.06452   0.92302   0.00000  Uiso   1.00
N319   N     0.12658   0.33019   0.75455   0.00000  Uiso   1.00
N320   N     0.91881   0.15100   0.95913   0.00000  Uiso   1.00
N321   N     0.41339   0.14912   0.02386   0.00000  Uiso   1.00
N322   N     0.12783   0.41478   0.85539   0.00000  Uiso   1.00
C323   C     0.62774   0.81988   0.63886   0.00000  Uiso   1.00
C324   C     0.65466   0.86142   0.71369   0.00000  Uiso   1.00
C325   C     0.65904   0.83865   0.76134   0.00000  Uiso   1.00
C326   C     0.68513   0.88442   0.82720   0.00000  Uiso   1.00
C327   C     0.72378   0.93884   0.94073   0.00000  Uiso   1.00
C328   C     0.69157   0.81781   0.60601   0.00000  Uiso   1.00
C329   C     0.72697   0.75836   0.56313   0.00000  Uiso   1.00
C330   C     0.78413   0.76743   0.53834   0.00000  Uiso   1.00
C331   C     0.88004   0.75414   0.48466   0.00000  Uiso   1.00
C332   C     0.56342   0.86389   0.61895   0.00000  Uiso   1.00
C333   C     0.49109   0.84319   0.58692   0.00000  Uiso   1.00
C334   C     0.44036   0.89105   0.57301   0.00000  Uiso   1.00
C335   C     0.33731   0.94931   0.53941   0.00000  Uiso   1.00
C336   C     0.66628   0.94168   0.67107   0.00000  Uiso   1.00
C337   C     0.67559   0.92757   0.73118   0.00000  Uiso   1.00
C338   C     0.70168   0.97340   0.79699   0.00000  Uiso   1.00
C339   C     0.70610   0.95070   0.84473   0.00000  Uiso   1.00
C340   C     0.71250   0.88396   0.62351   0.00000  Uiso   1.00
C341   C     0.76962   0.89312   0.59877   0.00000  Uiso   1.00
C342   C     0.80510   0.83371   0.55587   0.00000  Uiso   1.00
C343   C     0.58436   0.93005   0.63644   0.00000  Uiso   1.00
C344   C     0.53373   0.97794   0.62257   0.00000  Uiso   1.00
C345   C     0.46134   0.95732   0.59053   0.00000  Uiso   1.00
H346   H     0.61145   0.76838   0.62523   0.00000  Uiso   1.00
H347   H     0.64284   0.78744   0.74778   0.00000  Uiso   1.00
H348   H     0.71076   0.70718   0.54959   0.00000  Uiso   1.00
H349   H     0.47491   0.79199   0.57339   0.00000  Uiso   1.00
H350   H     0.68691   0.83775   0.89137   0.00000  Uiso   1.00
H351   H     0.83009   0.66850   0.47346   0.00000  Uiso   1.00
H352   H     0.33276   0.84735   0.52363   0.00000  Uiso   1.00
H353   H     0.68258   0.99318   0.68469   0.00000  Uiso   1.00
H354   H     0.71788   0.02459   0.81051   0.00000  Uiso   1.00
H355   H     0.78580   0.94432   0.61232   0.00000  Uiso   1.00
H356   H     0.54995   0.02913   0.63612   0.00000  Uiso   1.00
H357   H     0.74781   0.03022   0.94228   0.00000  Uiso   1.00
H358   H     0.89100   0.86097   0.52437   0.00000  Uiso   1.00
H359   H     0.39367   0.03982   0.57454   0.00000  Uiso   1.00
O360   O     0.73932   0.95058   0.99851   0.00000  Uiso   1.00
O361   O     0.92716   0.72853   0.45023   0.00000  Uiso   1.00
O362   O     0.27468   0.96317   0.51605   0.00000  Uiso   1.00
N363   N     0.69638   0.87874   0.88608   0.00000  Uiso   1.00
N364   N     0.83026   0.72050   0.49537   0.00000  Uiso   1.00
N365   N     0.36531   0.88770   0.54226   0.00000  Uiso   1.00
N366   N     0.72916   0.98231   0.91348   0.00000  Uiso   1.00
N367   N     0.86303   0.82407   0.52277   0.00000  Uiso   1.00
N368   N     0.39808   0.99127   0.56966   0.00000  Uiso   1.00
C369   C     0.92887   0.21935   0.37878   0.00000  Uiso   1.00
C370   C     0.90559   0.22521   0.31358   0.00000  Uiso   1.00
C371   C     0.95358   0.23386   0.28010   0.00000  Uiso   1.00
C372   C     0.92132   0.23808   0.22121   0.00000  Uiso   1.00
C373   C     0.89697   0.24779   0.12368   0.00000  Uiso   1.00
C374   C     0.90036   0.15106   0.36473   0.00000  Uiso   1.00
C375   C     0.94395   0.09738   0.37427   0.00000  Uiso   1.00
C376   C     0.90728   0.03919   0.35844   0.00000  Uiso   1.00
C377   C     0.87479   0.93382   0.34037   0.00000  Uiso   1.00
C378   C     0.88291   0.27637   0.42715   0.00000  Uiso   1.00
C379   C     0.91183   0.32803   0.48917   0.00000  Uiso   1.00
C380   C     0.86046   0.37533   0.52590   0.00000  Uiso   1.00
C381   C     0.80088   0.46450   0.60474   0.00000  Uiso   1.00
C382   C     0.78623   0.21147   0.33373   0.00000  Uiso   1.00
C383   C     0.82811   0.22093   0.28911   0.00000  Uiso   1.00
C384   C     0.79577   0.22514   0.23026   0.00000  Uiso   1.00
C385   C     0.84371   0.23380   0.19669   0.00000  Uiso   1.00
C386   C     0.82288   0.14678   0.34026   0.00000  Uiso   1.00
C387   C     0.78614   0.08866   0.32442   0.00000  Uiso   1.00
C388   C     0.82966   0.03490   0.33392   0.00000  Uiso   1.00
C389   C     0.80543   0.27209   0.40268   0.00000  Uiso   1.00
C390   C     0.75401   0.31931   0.43932   0.00000  Uiso   1.00
C391   C     0.78284   0.37104   0.50139   0.00000  Uiso   1.00
H392   H     0.98919   0.22268   0.39783   0.00000  Uiso   1.00
H393   H     0.01354   0.23716   0.29905   0.00000  Uiso   1.00
H394   H     0.00391   0.10071   0.39321   0.00000  Uiso   1.00
H395   H     0.97178   0.33132   0.50809   0.00000  Uiso   1.00
H396   H     0.00638   0.25131   0.17873   0.00000  Uiso   1.00
H397   H     0.98606   0.96360   0.37729   0.00000  Uiso   1.00
H398   H     0.91833   0.44989   0.61954   0.00000  Uiso   1.00
H399   H     0.72591   0.20813   0.31468   0.00000  Uiso   1.00
H400   H     0.73581   0.22182   0.21133   0.00000  Uiso   1.00
H401   H     0.72618   0.08537   0.30549   0.00000  Uiso   1.00
H402   H     0.69406   0.31598   0.42037   0.00000  Uiso   1.00
H403   H     0.78096   0.23885   0.10753   0.00000  Uiso   1.00
H404   H     0.76065   0.95115   0.30610   0.00000  Uiso   1.00
H405   H     0.69291   0.43744   0.54834   0.00000  Uiso   1.00
O406   O     0.90494   0.25432   0.07664   0.00000  Uiso   1.00
O407   O     0.87828   0.87687   0.33715   0.00000  Uiso   1.00
O408   O     0.78942   0.51488   0.65498   0.00000  Uiso   1.00
N409   N     0.95197   0.24651   0.17616   0.00000  Uiso   1.00
N410   N     0.93297   0.97752   0.36180   0.00000  Uiso   1.00
N411   N     0.86964   0.43215   0.58829   0.00000  Uiso   1.00
N412   N     0.83067   0.23981   0.13785   0.00000  Uiso   1.00
N413   N     0.81168   0.97082   0.32348   0.00000  Uiso   1.00
N414   N     0.74835   0.42545   0.54998   0.00000  Uiso   1.00
C415   C     0.50774   0.18412   0.37091   0.00000  Uiso   1.00
C416   C     0.52416   0.25146   0.43452   0.00000  Uiso   1.00
C417   C     0.57528   0.25818   0.49183   0.00000  Uiso   1.00
C418   C     0.58209   0.32422   0.54467   0.00000  Uiso   1.00
C419   C     0.61407   0.42007   0.64413   0.00000  Uiso   1.00
C420   C     0.42346   0.17650   0.35778   0.00000  Uiso   1.00
C421   C     0.38991   0.12017   0.35056   0.00000  Uiso   1.00
C422   C     0.31195   0.12311   0.33880   0.00000  Uiso   1.00
C423   C     0.18758   0.10255   0.31907   0.00000  Uiso   1.00
C424   C     0.52160   0.19661   0.31489   0.00000  Uiso   1.00
C425   C     0.57056   0.15719   0.27159   0.00000  Uiso   1.00
C426   C     0.57523   0.17705   0.22370   0.00000  Uiso   1.00
C427   C     0.60325   0.18772   0.13737   0.00000  Uiso   1.00
C428   C     0.42894   0.28948   0.36284   0.00000  Uiso   1.00
C429   C     0.48135   0.30869   0.43014   0.00000  Uiso   1.00
C430   C     0.48810   0.37474   0.48291   0.00000  Uiso   1.00
C431   C     0.53922   0.38155   0.54029   0.00000  Uiso   1.00
C432   C     0.38066   0.23372   0.35340   0.00000  Uiso   1.00
C433   C     0.30273   0.23673   0.34164   0.00000  Uiso   1.00
C434   C     0.26907   0.18043   0.33441   0.00000  Uiso   1.00
C435   C     0.47881   0.25384   0.31051   0.00000  Uiso   1.00
C436   C     0.48339   0.27376   0.26267   0.00000  Uiso   1.00
C437   C     0.53235   0.23438   0.21931   0.00000  Uiso   1.00
H438   H     0.54106   0.13957   0.37431   0.00000  Uiso   1.00
H439   H     0.60838   0.21388   0.49520   0.00000  Uiso   1.00
H440   H     0.42304   0.07589   0.35395   0.00000  Uiso   1.00
H441   H     0.60367   0.11291   0.27499   0.00000  Uiso   1.00
H442   H     0.66413   0.32149   0.62731   0.00000  Uiso   1.00
H443   H     0.27333   0.03053   0.32945   0.00000  Uiso   1.00
H444   H     0.65423   0.10858   0.16295   0.00000  Uiso   1.00
H445   H     0.39562   0.33403   0.35943   0.00000  Uiso   1.00
H446   H     0.45497   0.41901   0.47950   0.00000  Uiso   1.00
H447   H     0.26963   0.28103   0.33825   0.00000  Uiso   1.00
H448   H     0.45026   0.31804   0.25929   0.00000  Uiso   1.00
H449   H     0.53961   0.48799   0.61457   0.00000  Uiso   1.00
H450   H     0.14881   0.19703   0.31670   0.00000  Uiso   1.00
H451   H     0.52971   0.27508   0.15020   0.00000  Uiso   1.00
O452   O     0.64352   0.45713   0.70020   0.00000  Uiso   1.00
O453   O     0.13081   0.07540   0.30941   0.00000  Uiso   1.00
O454   O     0.63054   0.17780   0.09097   0.00000  Uiso   1.00
N455   N     0.62669   0.34902   0.60783   0.00000  Uiso   1.00
N456   N     0.26132   0.07699   0.32935   0.00000  Uiso   1.00
N457   N     0.61741   0.14995   0.17368   0.00000  Uiso   1.00
N458   N     0.55969   0.43861   0.60097   0.00000  Uiso   1.00
N459   N     0.19432   0.16658   0.32250   0.00000  Uiso   1.00
N460   N     0.55041   0.23954   0.16682   0.00000  Uiso   1.00
C461   C     0.55892   0.57739   0.04273   0.00000  Uiso   1.00
C462   C     0.47390   0.57460   0.02005   0.00000  Uiso   1.00
C463   C     0.42620   0.55068   0.04249   0.00000  Uiso   1.00
C464   C     0.35016   0.55236   0.01562   0.00000  Uiso   1.00
C465   C     0.22229   0.54423   0.98762   0.00000  Uiso   1.00
C466   C     0.59211   0.53615   0.97967   0.00000  Uiso   1.00
C467   C     0.64382   0.47992   0.96817   0.00000  Uiso   1.00
C468   C     0.66730   0.44924   0.90729   0.00000  Uiso   1.00
C469   C     0.72301   0.38146   0.81663   0.00000  Uiso   1.00
C470   C     0.57634   0.65260   0.06839   0.00000  Uiso   1.00
C471   C     0.61480   0.69428   0.13148   0.00000  Uiso   1.00
C472   C     0.62501   0.76165   0.14531   0.00000  Uiso   1.00
C473   C     0.65623   0.87467   0.19240   0.00000  Uiso   1.00
C474   C     0.50869   0.62291   0.95509   0.00000  Uiso   1.00
C475   C     0.44662   0.59932   0.97245   0.00000  Uiso   1.00
C476   C     0.37063   0.60104   0.94553   0.00000  Uiso   1.00
C477   C     0.32283   0.57713   0.96793   0.00000  Uiso   1.00
C478   C     0.56483   0.56087   0.93207   0.00000  Uiso   1.00
C479   C     0.58825   0.53028   0.87120   0.00000  Uiso   1.00
C480   C     0.63997   0.47401   0.85961   0.00000  Uiso   1.00
C481   C     0.54905   0.67733   0.02079   0.00000  Uiso   1.00
C482   C     0.55922   0.74464   0.03452   0.00000  Uiso   1.00
C483   C     0.59768   0.78641   0.09762   0.00000  Uiso   1.00
H484   H     0.58017   0.55814   0.07978   0.00000  Uiso   1.00
H485   H     0.44734   0.53154   0.07933   0.00000  Uiso   1.00
H486   H     0.66493   0.46080   0.00501   0.00000  Uiso   1.00
H487   H     0.63590   0.67513   0.16831   0.00000  Uiso   1.00
H488   H     0.28805   0.51294   0.05781   0.00000  Uiso   1.00
H489   H     0.74686   0.36379   0.90113   0.00000  Uiso   1.00
H490   H     0.68567   0.81574   0.24546   0.00000  Uiso   1.00
H491   H     0.48745   0.64215   0.91803   0.00000  Uiso   1.00
H492   H     0.34953   0.62017   0.90869   0.00000  Uiso   1.00
H493   H     0.56712   0.54943   0.83438   0.00000  Uiso   1.00
H494   H     0.53810   0.76375   0.99767   0.00000  Uiso   1.00
H495   H     0.20866   0.58487   0.91932   0.00000  Uiso   1.00
H496   H     0.66748   0.43572   0.76263   0.00000  Uiso   1.00
H497   H     0.60628   0.88767   0.10696   0.00000  Uiso   1.00
O498   O     0.15930   0.53290   0.98533   0.00000  Uiso   1.00
O499   O     0.76126   0.33724   0.77977   0.00000  Uiso   1.00
O500   O     0.68097   0.93019   0.23152   0.00000  Uiso   1.00
N501   N     0.28829   0.53290   0.02651   0.00000  Uiso   1.00
N502   N     0.71725   0.39344   0.88001   0.00000  Uiso   1.00
N503   N     0.66005   0.81598   0.20193   0.00000  Uiso   1.00
N504   N     0.24557   0.57160   0.95199   0.00000  Uiso   1.00
N505   N     0.67453   0.43215   0.80549   0.00000  Uiso   1.00
N506   N     0.61733   0.85468   0.12740   0.00000  Uiso   1.00
C507   C     0.19078   0.70987   0.29170   0.00000  Uiso   1.00
C508   C     0.18550   0.73062   0.23630   0.00000  Uiso   1.00
C509   C     0.15915   0.69031   0.16896   0.00000  Uiso   1.00
C510   C     0.15883   0.71861   0.12621   0.00000  Uiso   1.00
C511   C     0.14684   0.74074   0.03656   0.00000  Uiso   1.00
C512   C     0.27265   0.71624   0.32729   0.00000  Uiso   1.00
C513   C     0.31957   0.66384   0.33647   0.00000  Uiso   1.00
C514   C     0.39261   0.68003   0.37032   0.00000  Uiso   1.00
C515   C     0.51591   0.67985   0.42198   0.00000  Uiso   1.00
C516   C     0.14591   0.76630   0.34153   0.00000  Uiso   1.00
C517   C     0.08627   0.75599   0.36270   0.00000  Uiso   1.00
C518   C     0.05261   0.81434   0.40856   0.00000  Uiso   1.00
C519   C     0.97913   0.89188   0.48234   0.00000  Uiso   1.00
C520   C     0.23706   0.83181   0.33551   0.00000  Uiso   1.00
C521   C     0.21064   0.79685   0.26010   0.00000  Uiso   1.00
C522   C     0.21035   0.82522   0.21744   0.00000  Uiso   1.00
C523   C     0.18401   0.78496   0.15005   0.00000  Uiso   1.00
C524   C     0.29779   0.78247   0.35109   0.00000  Uiso   1.00
C525   C     0.37077   0.79874   0.38494   0.00000  Uiso   1.00
C526   C     0.41779   0.74638   0.39416   0.00000  Uiso   1.00
C527   C     0.17104   0.83253   0.36533   0.00000  Uiso   1.00
C528   C     0.13747   0.89090   0.41117   0.00000  Uiso   1.00
C529   C     0.07780   0.88068   0.43240   0.00000  Uiso   1.00
H530   H     0.17121   0.65831   0.27317   0.00000  Uiso   1.00
H531   H     0.13971   0.63906   0.15056   0.00000  Uiso   1.00
H532   H     0.30010   0.61259   0.31805   0.00000  Uiso   1.00
H533   H     0.06683   0.70473   0.34427   0.00000  Uiso   1.00
H534   H     0.11589   0.64691   0.02512   0.00000  Uiso   1.00
H535   H     0.45408   0.59112   0.37829   0.00000  Uiso   1.00
H536   H     0.96220   0.78541   0.43360   0.00000  Uiso   1.00
H537   H     0.25663   0.88337   0.35404   0.00000  Uiso   1.00
H538   H     0.22981   0.87647   0.23587   0.00000  Uiso   1.00
H539   H     0.39021   0.85000   0.40335   0.00000  Uiso   1.00
H540   H     0.15694   0.94215   0.42958   0.00000  Uiso   1.00
H541   H     0.18903   0.83961   0.09436   0.00000  Uiso   1.00
H542   H     0.52721   0.78381   0.44753   0.00000  Uiso   1.00
H543   H     0.03533   0.97811   0.50283   0.00000  Uiso   1.00
O544   O     0.13330   0.73465   0.98054   0.00000  Uiso   1.00
O545   O     0.57698   0.66145   0.44389   0.00000  Uiso   1.00
O546   O     0.93164   0.91637   0.51645   0.00000  Uiso   1.00
N547   N     0.13677   0.69322   0.05764   0.00000  Uiso   1.00
N548   N     0.45296   0.64104   0.38782   0.00000  Uiso   1.00
N549   N     0.99310   0.82270   0.43954   0.00000  Uiso   1.00
N550   N     0.17612   0.79691   0.09489   0.00000  Uiso   1.00
N551   N     0.49231   0.74473   0.42507   0.00000  Uiso   1.00
N552   N     0.03245   0.92638   0.47679   0.00000  Uiso   1.00
