data_job_04219
_audit_creation_date              2018-12-19
_audit_creation_method            'Materials Studio'
_symmetry_space_group_name_H-M    'P1'
_symmetry_Int_Tables_number       1
_symmetry_cell_setting            triclinic
loop_
_symmetry_equiv_pos_as_xyz
  x,y,z
_cell_length_a                    17.5049
_cell_length_b                    17.5049
_cell_length_c                    22.3726
_cell_angle_alpha                 90.0000
_cell_angle_beta                  90.0000
_cell_angle_gamma                 90.0000
loop_
_atom_site_label
_atom_site_type_symbol
_atom_site_fract_x
_atom_site_fract_y
_atom_site_fract_z
_atom_site_U_iso_or_equiv
_atom_site_adp_type
_atom_site_occupancy
C1     C     0.30954   0.19163   0.51046   0.00000  Uiso   1.00
C2     C     0.38193   0.19346   0.54836   0.00000  Uiso   1.00
C3     C     0.40417   0.25267   0.58575   0.00000  Uiso   1.00
C4     C     0.47236   0.24341   0.61661   0.00000  Uiso   1.00
C5     C     0.57805   0.25632   0.67639   0.00000  Uiso   1.00
C6     C     0.33579   0.17858   0.44628   0.00000  Uiso   1.00
C7     C     0.31924   0.22528   0.39785   0.00000  Uiso   1.00
C8     C     0.34858   0.20349   0.34277   0.00000  Uiso   1.00
C9     C     0.38259   0.19328   0.24407   0.00000  Uiso   1.00
C10    C     0.26677   0.11942   0.52873   0.00000  Uiso   1.00
C11    C     0.19218   0.11636   0.54961   0.00000  Uiso   1.00
C12    C     0.16341   0.04475   0.56394   0.00000  Uiso   1.00
C13    C     0.09027   0.94267   0.59326   0.00000  Uiso   1.00
C14    C     0.39108   0.06988   0.49876   0.00000  Uiso   1.00
C15    C     0.42621   0.12733   0.54200   0.00000  Uiso   1.00
C16    C     0.49439   0.11797   0.57280   0.00000  Uiso   1.00
C17    C     0.51673   0.17716   0.61024   0.00000  Uiso   1.00
C18    C     0.38008   0.11246   0.43992   0.00000  Uiso   1.00
C19    C     0.40945   0.09059   0.38490   0.00000  Uiso   1.00
C20    C     0.39295   0.13724   0.33640   0.00000  Uiso   1.00
C21    C     0.31106   0.05329   0.52238   0.00000  Uiso   1.00
C22    C     0.28240   0.98167   0.53667   0.00000  Uiso   1.00
C23    C     0.20778   0.97850   0.55757   0.00000  Uiso   1.00
H24    H     0.27506   0.24311   0.51541   0.00000  Uiso   1.00
H25    H     0.36989   0.30384   0.59065   0.00000  Uiso   1.00
H26    H     0.28496   0.27645   0.40278   0.00000  Uiso   1.00
H27    H     0.15793   0.16755   0.55453   0.00000  Uiso   1.00
H28    H     0.49457   0.34202   0.67126   0.00000  Uiso   1.00
H29    H     0.31547   0.28425   0.27512   0.00000  Uiso   1.00
H30    H     0.04760   0.05460   0.59510   0.00000  Uiso   1.00
H31    H     0.42556   0.01840   0.49381   0.00000  Uiso   1.00
H32    H     0.52865   0.06679   0.56787   0.00000  Uiso   1.00
H33    H     0.44372   0.03941   0.38000   0.00000  Uiso   1.00
H34    H     0.31669   0.93050   0.53174   0.00000  Uiso   1.00
H35    H     0.62343   0.14962   0.65277   0.00000  Uiso   1.00
H36    H     0.44432   0.09186   0.25662   0.00000  Uiso   1.00
H37    H     0.17646   0.86221   0.57661   0.00000  Uiso   1.00
O38    O     0.62411   0.28172   0.71111   0.00000  Uiso   1.00
O39    O     0.38912   0.20593   0.19138   0.00000  Uiso   1.00
O40    O     0.03769   0.90464   0.61120   0.00000  Uiso   1.00
N41    N     0.51074   0.29009   0.65675   0.00000  Uiso   1.00
N42    N     0.34330   0.23609   0.28638   0.00000  Uiso   1.00
N43    N     0.09286   0.02139   0.58552   0.00000  Uiso   1.00
N44    N     0.58008   0.18656   0.64680   0.00000  Uiso   1.00
N45    N     0.41264   0.13256   0.27643   0.00000  Uiso   1.00
N46    N     0.16220   0.91786   0.57557   0.00000  Uiso   1.00
C47    C     0.69046   0.80837   0.51046   0.00000  Uiso   1.00
C48    C     0.61807   0.80654   0.54836   0.00000  Uiso   1.00
C49    C     0.59583   0.74733   0.58575   0.00000  Uiso   1.00
C50    C     0.52764   0.75659   0.61661   0.00000  Uiso   1.00
C51    C     0.42195   0.74368   0.67639   0.00000  Uiso   1.00
C52    C     0.66421   0.82142   0.44628   0.00000  Uiso   1.00
C53    C     0.68076   0.77472   0.39785   0.00000  Uiso   1.00
C54    C     0.65142   0.79651   0.34277   0.00000  Uiso   1.00
C55    C     0.61741   0.80672   0.24407   0.00000  Uiso   1.00
C56    C     0.73323   0.88058   0.52873   0.00000  Uiso   1.00
C57    C     0.80782   0.88364   0.54961   0.00000  Uiso   1.00
C58    C     0.83659   0.95525   0.56394   0.00000  Uiso   1.00
C59    C     0.90973   0.05733   0.59326   0.00000  Uiso   1.00
C60    C     0.60892   0.93012   0.49876   0.00000  Uiso   1.00
C61    C     0.57379   0.87267   0.54200   0.00000  Uiso   1.00
C62    C     0.50561   0.88203   0.57280   0.00000  Uiso   1.00
C63    C     0.48327   0.82284   0.61024   0.00000  Uiso   1.00
C64    C     0.61992   0.88754   0.43992   0.00000  Uiso   1.00
C65    C     0.59055   0.90941   0.38490   0.00000  Uiso   1.00
C66    C     0.60705   0.86276   0.33640   0.00000  Uiso   1.00
C67    C     0.68894   0.94671   0.52238   0.00000  Uiso   1.00
C68    C     0.71760   0.01833   0.53667   0.00000  Uiso   1.00
C69    C     0.79222   0.02150   0.55757   0.00000  Uiso   1.00
H70    H     0.72494   0.75689   0.51541   0.00000  Uiso   1.00
H71    H     0.63011   0.69616   0.59065   0.00000  Uiso   1.00
H72    H     0.71504   0.72355   0.40278   0.00000  Uiso   1.00
H73    H     0.84207   0.83245   0.55453   0.00000  Uiso   1.00
H74    H     0.50543   0.65798   0.67126   0.00000  Uiso   1.00
H75    H     0.68453   0.71575   0.27512   0.00000  Uiso   1.00
H76    H     0.95240   0.94540   0.59510   0.00000  Uiso   1.00
H77    H     0.57444   0.98160   0.49381   0.00000  Uiso   1.00
H78    H     0.47135   0.93321   0.56787   0.00000  Uiso   1.00
H79    H     0.55628   0.96059   0.38000   0.00000  Uiso   1.00
H80    H     0.68331   0.06950   0.53174   0.00000  Uiso   1.00
H81    H     0.37657   0.85038   0.65277   0.00000  Uiso   1.00
H82    H     0.55568   0.90814   0.25662   0.00000  Uiso   1.00
H83    H     0.82354   0.13779   0.57661   0.00000  Uiso   1.00
O84    O     0.37589   0.71828   0.71111   0.00000  Uiso   1.00
O85    O     0.61088   0.79407   0.19138   0.00000  Uiso   1.00
O86    O     0.96231   0.09536   0.61120   0.00000  Uiso   1.00
N87    N     0.48926   0.70991   0.65675   0.00000  Uiso   1.00
N88    N     0.65670   0.76391   0.28638   0.00000  Uiso   1.00
N89    N     0.90714   0.97861   0.58552   0.00000  Uiso   1.00
N90    N     0.41992   0.81344   0.64680   0.00000  Uiso   1.00
N91    N     0.58736   0.86744   0.27643   0.00000  Uiso   1.00
N92    N     0.83780   0.08214   0.57557   0.00000  Uiso   1.00
C93    C     0.30837   0.80954   0.01046   0.00000  Uiso   1.00
C94    C     0.30654   0.88193   0.04836   0.00000  Uiso   1.00
C95    C     0.24733   0.90417   0.08575   0.00000  Uiso   1.00
C96    C     0.25659   0.97236   0.11661   0.00000  Uiso   1.00
C97    C     0.24368   0.07805   0.17639   0.00000  Uiso   1.00
C98    C     0.32142   0.83579   0.94628   0.00000  Uiso   1.00
C99    C     0.27472   0.81924   0.89785   0.00000  Uiso   1.00
C100   C     0.29651   0.84858   0.84277   0.00000  Uiso   1.00
C101   C     0.30672   0.88259   0.74407   0.00000  Uiso   1.00
C102   C     0.38058   0.76677   0.02873   0.00000  Uiso   1.00
C103   C     0.38364   0.69218   0.04961   0.00000  Uiso   1.00
C104   C     0.45525   0.66341   0.06394   0.00000  Uiso   1.00
C105   C     0.55733   0.59027   0.09326   0.00000  Uiso   1.00
C106   C     0.43012   0.89108   0.99876   0.00000  Uiso   1.00
C107   C     0.37267   0.92621   0.04200   0.00000  Uiso   1.00
C108   C     0.38203   0.99439   0.07280   0.00000  Uiso   1.00
C109   C     0.32284   0.01673   0.11024   0.00000  Uiso   1.00
C110   C     0.38754   0.88008   0.93992   0.00000  Uiso   1.00
C111   C     0.40941   0.90945   0.88490   0.00000  Uiso   1.00
C112   C     0.36276   0.89295   0.83640   0.00000  Uiso   1.00
C113   C     0.44671   0.81106   0.02238   0.00000  Uiso   1.00
C114   C     0.51833   0.78240   0.03667   0.00000  Uiso   1.00
C115   C     0.52150   0.70778   0.05757   0.00000  Uiso   1.00
H116   H     0.25689   0.77506   0.01541   0.00000  Uiso   1.00
H117   H     0.19616   0.86989   0.09065   0.00000  Uiso   1.00
H118   H     0.22355   0.78496   0.90278   0.00000  Uiso   1.00
H119   H     0.33245   0.65793   0.05453   0.00000  Uiso   1.00
H120   H     0.15798   0.99457   0.17126   0.00000  Uiso   1.00
H121   H     0.21575   0.81547   0.77512   0.00000  Uiso   1.00
H122   H     0.44540   0.54760   0.09510   0.00000  Uiso   1.00
H123   H     0.48160   0.92556   0.99381   0.00000  Uiso   1.00
H124   H     0.43321   0.02865   0.06787   0.00000  Uiso   1.00
H125   H     0.46059   0.94372   0.88000   0.00000  Uiso   1.00
H126   H     0.56950   0.81669   0.03174   0.00000  Uiso   1.00
H127   H     0.35038   0.12343   0.15277   0.00000  Uiso   1.00
H128   H     0.40814   0.94432   0.75662   0.00000  Uiso   1.00
H129   H     0.63779   0.67646   0.07661   0.00000  Uiso   1.00
O130   O     0.21828   0.12411   0.21111   0.00000  Uiso   1.00
O131   O     0.29407   0.88912   0.69138   0.00000  Uiso   1.00
O132   O     0.59536   0.53769   0.11120   0.00000  Uiso   1.00
N133   N     0.20991   0.01074   0.15675   0.00000  Uiso   1.00
N134   N     0.26391   0.84330   0.78638   0.00000  Uiso   1.00
N135   N     0.47861   0.59286   0.08552   0.00000  Uiso   1.00
N136   N     0.31344   0.08008   0.14680   0.00000  Uiso   1.00
N137   N     0.36744   0.91264   0.77643   0.00000  Uiso   1.00
N138   N     0.58214   0.66220   0.07557   0.00000  Uiso   1.00
C139   C     0.69163   0.19046   0.01046   0.00000  Uiso   1.00
C140   C     0.69346   0.11807   0.04836   0.00000  Uiso   1.00
C141   C     0.75267   0.09583   0.08575   0.00000  Uiso   1.00
C142   C     0.74341   0.02764   0.11661   0.00000  Uiso   1.00
C143   C     0.75632   0.92195   0.17639   0.00000  Uiso   1.00
C144   C     0.67858   0.16421   0.94628   0.00000  Uiso   1.00
C145   C     0.72528   0.18076   0.89785   0.00000  Uiso   1.00
C146   C     0.70349   0.15142   0.84277   0.00000  Uiso   1.00
C147   C     0.69328   0.11741   0.74407   0.00000  Uiso   1.00
C148   C     0.61942   0.23323   0.02873   0.00000  Uiso   1.00
C149   C     0.61636   0.30782   0.04961   0.00000  Uiso   1.00
C150   C     0.54475   0.33659   0.06394   0.00000  Uiso   1.00
C151   C     0.44267   0.40973   0.09326   0.00000  Uiso   1.00
C152   C     0.56988   0.10892   0.99876   0.00000  Uiso   1.00
C153   C     0.62733   0.07379   0.04200   0.00000  Uiso   1.00
C154   C     0.61797   0.00561   0.07280   0.00000  Uiso   1.00
C155   C     0.67716   0.98327   0.11024   0.00000  Uiso   1.00
C156   C     0.61246   0.11992   0.93992   0.00000  Uiso   1.00
C157   C     0.59059   0.09055   0.88490   0.00000  Uiso   1.00
C158   C     0.63724   0.10705   0.83640   0.00000  Uiso   1.00
C159   C     0.55329   0.18894   0.02238   0.00000  Uiso   1.00
C160   C     0.48167   0.21760   0.03667   0.00000  Uiso   1.00
C161   C     0.47850   0.29222   0.05757   0.00000  Uiso   1.00
H162   H     0.74311   0.22494   0.01541   0.00000  Uiso   1.00
H163   H     0.80384   0.13011   0.09065   0.00000  Uiso   1.00
H164   H     0.77645   0.21504   0.90278   0.00000  Uiso   1.00
H165   H     0.66755   0.34207   0.05453   0.00000  Uiso   1.00
H166   H     0.84202   0.00543   0.17126   0.00000  Uiso   1.00
H167   H     0.78425   0.18453   0.77512   0.00000  Uiso   1.00
H168   H     0.55460   0.45240   0.09510   0.00000  Uiso   1.00
H169   H     0.51840   0.07444   0.99381   0.00000  Uiso   1.00
H170   H     0.56679   0.97135   0.06787   0.00000  Uiso   1.00
H171   H     0.53941   0.05628   0.88000   0.00000  Uiso   1.00
H172   H     0.43050   0.18331   0.03174   0.00000  Uiso   1.00
H173   H     0.64962   0.87657   0.15277   0.00000  Uiso   1.00
H174   H     0.59186   0.05568   0.75662   0.00000  Uiso   1.00
H175   H     0.36221   0.32354   0.07661   0.00000  Uiso   1.00
O176   O     0.78172   0.87589   0.21111   0.00000  Uiso   1.00
O177   O     0.70593   0.11088   0.69138   0.00000  Uiso   1.00
O178   O     0.40464   0.46231   0.11120   0.00000  Uiso   1.00
N179   N     0.79009   0.98926   0.15675   0.00000  Uiso   1.00
N180   N     0.73609   0.15670   0.78638   0.00000  Uiso   1.00
N181   N     0.52139   0.40714   0.08552   0.00000  Uiso   1.00
N182   N     0.68656   0.91992   0.14680   0.00000  Uiso   1.00
N183   N     0.63256   0.08736   0.77643   0.00000  Uiso   1.00
N184   N     0.41786   0.33780   0.07557   0.00000  Uiso   1.00
C185   C     0.19046   0.30837   0.98954   0.00000  Uiso   1.00
C186   C     0.11807   0.30654   0.95164   0.00000  Uiso   1.00
C187   C     0.09583   0.24733   0.91425   0.00000  Uiso   1.00
C188   C     0.02764   0.25659   0.88339   0.00000  Uiso   1.00
C189   C     0.92195   0.24368   0.82361   0.00000  Uiso   1.00
C190   C     0.16421   0.32142   0.05372   0.00000  Uiso   1.00
C191   C     0.18076   0.27472   0.10215   0.00000  Uiso   1.00
C192   C     0.15142   0.29651   0.15723   0.00000  Uiso   1.00
C193   C     0.11741   0.30672   0.25593   0.00000  Uiso   1.00
C194   C     0.23323   0.38058   0.97127   0.00000  Uiso   1.00
C195   C     0.30782   0.38364   0.95039   0.00000  Uiso   1.00
C196   C     0.33659   0.45525   0.93606   0.00000  Uiso   1.00
C197   C     0.40973   0.55733   0.90674   0.00000  Uiso   1.00
C198   C     0.10892   0.43012   0.00124   0.00000  Uiso   1.00
C199   C     0.07379   0.37267   0.95800   0.00000  Uiso   1.00
C200   C     0.00561   0.38203   0.92720   0.00000  Uiso   1.00
C201   C     0.98327   0.32284   0.88976   0.00000  Uiso   1.00
C202   C     0.11992   0.38754   0.06008   0.00000  Uiso   1.00
C203   C     0.09055   0.40941   0.11510   0.00000  Uiso   1.00
C204   C     0.10705   0.36276   0.16360   0.00000  Uiso   1.00
C205   C     0.18894   0.44671   0.97762   0.00000  Uiso   1.00
C206   C     0.21760   0.51833   0.96333   0.00000  Uiso   1.00
C207   C     0.29222   0.52150   0.94243   0.00000  Uiso   1.00
H208   H     0.22494   0.25689   0.98459   0.00000  Uiso   1.00
H209   H     0.13011   0.19616   0.90935   0.00000  Uiso   1.00
H210   H     0.21504   0.22355   0.09722   0.00000  Uiso   1.00
H211   H     0.34207   0.33245   0.94547   0.00000  Uiso   1.00
H212   H     0.00543   0.15798   0.82874   0.00000  Uiso   1.00
H213   H     0.18453   0.21575   0.22488   0.00000  Uiso   1.00
H214   H     0.45240   0.44540   0.90490   0.00000  Uiso   1.00
H215   H     0.07444   0.48160   0.00619   0.00000  Uiso   1.00
H216   H     0.97135   0.43321   0.93213   0.00000  Uiso   1.00
H217   H     0.05628   0.46059   0.12000   0.00000  Uiso   1.00
H218   H     0.18331   0.56950   0.96826   0.00000  Uiso   1.00
H219   H     0.87657   0.35038   0.84723   0.00000  Uiso   1.00
H220   H     0.05568   0.40814   0.24338   0.00000  Uiso   1.00
H221   H     0.32354   0.63779   0.92339   0.00000  Uiso   1.00
O222   O     0.87589   0.21828   0.78889   0.00000  Uiso   1.00
O223   O     0.11088   0.29407   0.30862   0.00000  Uiso   1.00
O224   O     0.46231   0.59536   0.88880   0.00000  Uiso   1.00
N225   N     0.98926   0.20991   0.84325   0.00000  Uiso   1.00
N226   N     0.15670   0.26391   0.21362   0.00000  Uiso   1.00
N227   N     0.40714   0.47861   0.91448   0.00000  Uiso   1.00
N228   N     0.91992   0.31344   0.85320   0.00000  Uiso   1.00
N229   N     0.08736   0.36744   0.22357   0.00000  Uiso   1.00
N230   N     0.33780   0.58214   0.92442   0.00000  Uiso   1.00
C231   C     0.80954   0.69163   0.98954   0.00000  Uiso   1.00
C232   C     0.88193   0.69346   0.95164   0.00000  Uiso   1.00
C233   C     0.90417   0.75267   0.91425   0.00000  Uiso   1.00
C234   C     0.97236   0.74341   0.88339   0.00000  Uiso   1.00
C235   C     0.07805   0.75632   0.82361   0.00000  Uiso   1.00
C236   C     0.83579   0.67858   0.05372   0.00000  Uiso   1.00
C237   C     0.81924   0.72528   0.10215   0.00000  Uiso   1.00
C238   C     0.84858   0.70349   0.15723   0.00000  Uiso   1.00
C239   C     0.88259   0.69328   0.25593   0.00000  Uiso   1.00
C240   C     0.76677   0.61942   0.97127   0.00000  Uiso   1.00
C241   C     0.69218   0.61636   0.95039   0.00000  Uiso   1.00
C242   C     0.66341   0.54475   0.93606   0.00000  Uiso   1.00
C243   C     0.59027   0.44267   0.90674   0.00000  Uiso   1.00
C244   C     0.89108   0.56988   0.00124   0.00000  Uiso   1.00
C245   C     0.92621   0.62733   0.95800   0.00000  Uiso   1.00
C246   C     0.99439   0.61797   0.92720   0.00000  Uiso   1.00
C247   C     0.01673   0.67716   0.88976   0.00000  Uiso   1.00
C248   C     0.88008   0.61246   0.06008   0.00000  Uiso   1.00
C249   C     0.90945   0.59059   0.11510   0.00000  Uiso   1.00
C250   C     0.89295   0.63724   0.16360   0.00000  Uiso   1.00
C251   C     0.81106   0.55329   0.97762   0.00000  Uiso   1.00
C252   C     0.78240   0.48167   0.96333   0.00000  Uiso   1.00
C253   C     0.70778   0.47850   0.94243   0.00000  Uiso   1.00
H254   H     0.77506   0.74311   0.98459   0.00000  Uiso   1.00
H255   H     0.86989   0.80384   0.90935   0.00000  Uiso   1.00
H256   H     0.78496   0.77645   0.09722   0.00000  Uiso   1.00
H257   H     0.65793   0.66755   0.94547   0.00000  Uiso   1.00
H258   H     0.99457   0.84202   0.82874   0.00000  Uiso   1.00
H259   H     0.81547   0.78425   0.22488   0.00000  Uiso   1.00
H260   H     0.54760   0.55460   0.90490   0.00000  Uiso   1.00
H261   H     0.92556   0.51840   0.00619   0.00000  Uiso   1.00
H262   H     0.02865   0.56679   0.93213   0.00000  Uiso   1.00
H263   H     0.94372   0.53941   0.12000   0.00000  Uiso   1.00
H264   H     0.81669   0.43050   0.96826   0.00000  Uiso   1.00
H265   H     0.12343   0.64962   0.84723   0.00000  Uiso   1.00
H266   H     0.94432   0.59186   0.24338   0.00000  Uiso   1.00
H267   H     0.67646   0.36221   0.92339   0.00000  Uiso   1.00
O268   O     0.12411   0.78172   0.78889   0.00000  Uiso   1.00
O269   O     0.88912   0.70593   0.30862   0.00000  Uiso   1.00
O270   O     0.53769   0.40464   0.88880   0.00000  Uiso   1.00
N271   N     0.01074   0.79009   0.84325   0.00000  Uiso   1.00
N272   N     0.84330   0.73609   0.21362   0.00000  Uiso   1.00
N273   N     0.59286   0.52139   0.91448   0.00000  Uiso   1.00
N274   N     0.08008   0.68656   0.85320   0.00000  Uiso   1.00
N275   N     0.91264   0.63256   0.22357   0.00000  Uiso   1.00
N276   N     0.66220   0.41786   0.92442   0.00000  Uiso   1.00
C277   C     0.19163   0.69046   0.48954   0.00000  Uiso   1.00
C278   C     0.19346   0.61807   0.45164   0.00000  Uiso   1.00
C279   C     0.25267   0.59583   0.41425   0.00000  Uiso   1.00
C280   C     0.24341   0.52764   0.38339   0.00000  Uiso   1.00
C281   C     0.25632   0.42195   0.32361   0.00000  Uiso   1.00
C282   C     0.17858   0.66421   0.55372   0.00000  Uiso   1.00
C283   C     0.22528   0.68076   0.60215   0.00000  Uiso   1.00
C284   C     0.20349   0.65142   0.65723   0.00000  Uiso   1.00
C285   C     0.19328   0.61741   0.75593   0.00000  Uiso   1.00
C286   C     0.11942   0.73323   0.47127   0.00000  Uiso   1.00
C287   C     0.11636   0.80782   0.45039   0.00000  Uiso   1.00
C288   C     0.04475   0.83659   0.43606   0.00000  Uiso   1.00
C289   C     0.94267   0.90973   0.40674   0.00000  Uiso   1.00
C290   C     0.06988   0.60892   0.50124   0.00000  Uiso   1.00
C291   C     0.12733   0.57379   0.45800   0.00000  Uiso   1.00
C292   C     0.11797   0.50561   0.42720   0.00000  Uiso   1.00
C293   C     0.17716   0.48327   0.38976   0.00000  Uiso   1.00
C294   C     0.11246   0.61992   0.56008   0.00000  Uiso   1.00
C295   C     0.09059   0.59055   0.61510   0.00000  Uiso   1.00
C296   C     0.13724   0.60705   0.66360   0.00000  Uiso   1.00
C297   C     0.05329   0.68894   0.47762   0.00000  Uiso   1.00
C298   C     0.98167   0.71760   0.46333   0.00000  Uiso   1.00
C299   C     0.97850   0.79222   0.44243   0.00000  Uiso   1.00
H300   H     0.24311   0.72494   0.48459   0.00000  Uiso   1.00
H301   H     0.30384   0.63011   0.40935   0.00000  Uiso   1.00
H302   H     0.27645   0.71504   0.59722   0.00000  Uiso   1.00
H303   H     0.16755   0.84207   0.44547   0.00000  Uiso   1.00
H304   H     0.34202   0.50543   0.32874   0.00000  Uiso   1.00
H305   H     0.28425   0.68453   0.72488   0.00000  Uiso   1.00
H306   H     0.05460   0.95240   0.40490   0.00000  Uiso   1.00
H307   H     0.01840   0.57444   0.50619   0.00000  Uiso   1.00
H308   H     0.06679   0.47135   0.43213   0.00000  Uiso   1.00
H309   H     0.03941   0.55628   0.62000   0.00000  Uiso   1.00
H310   H     0.93050   0.68331   0.46826   0.00000  Uiso   1.00
H311   H     0.14962   0.37657   0.34723   0.00000  Uiso   1.00
H312   H     0.09186   0.55568   0.74338   0.00000  Uiso   1.00
H313   H     0.86221   0.82354   0.42339   0.00000  Uiso   1.00
O314   O     0.28172   0.37589   0.28889   0.00000  Uiso   1.00
O315   O     0.20593   0.61088   0.80862   0.00000  Uiso   1.00
O316   O     0.90464   0.96231   0.38880   0.00000  Uiso   1.00
N317   N     0.29009   0.48926   0.34325   0.00000  Uiso   1.00
N318   N     0.23609   0.65670   0.71362   0.00000  Uiso   1.00
N319   N     0.02139   0.90714   0.41448   0.00000  Uiso   1.00
N320   N     0.18656   0.41992   0.35320   0.00000  Uiso   1.00
N321   N     0.13256   0.58736   0.72357   0.00000  Uiso   1.00
N322   N     0.91786   0.83780   0.42443   0.00000  Uiso   1.00
C323   C     0.80837   0.30954   0.48954   0.00000  Uiso   1.00
C324   C     0.80654   0.38193   0.45164   0.00000  Uiso   1.00
C325   C     0.74733   0.40417   0.41425   0.00000  Uiso   1.00
C326   C     0.75659   0.47236   0.38339   0.00000  Uiso   1.00
C327   C     0.74368   0.57805   0.32361   0.00000  Uiso   1.00
C328   C     0.82142   0.33579   0.55372   0.00000  Uiso   1.00
C329   C     0.77472   0.31924   0.60215   0.00000  Uiso   1.00
C330   C     0.79651   0.34858   0.65723   0.00000  Uiso   1.00
C331   C     0.80672   0.38259   0.75593   0.00000  Uiso   1.00
C332   C     0.88058   0.26677   0.47127   0.00000  Uiso   1.00
C333   C     0.88364   0.19218   0.45039   0.00000  Uiso   1.00
C334   C     0.95525   0.16341   0.43606   0.00000  Uiso   1.00
C335   C     0.05733   0.09027   0.40674   0.00000  Uiso   1.00
C336   C     0.93012   0.39108   0.50124   0.00000  Uiso   1.00
C337   C     0.87267   0.42621   0.45800   0.00000  Uiso   1.00
C338   C     0.88203   0.49439   0.42720   0.00000  Uiso   1.00
C339   C     0.82284   0.51673   0.38976   0.00000  Uiso   1.00
C340   C     0.88754   0.38008   0.56008   0.00000  Uiso   1.00
C341   C     0.90941   0.40945   0.61510   0.00000  Uiso   1.00
C342   C     0.86276   0.39295   0.66360   0.00000  Uiso   1.00
C343   C     0.94671   0.31106   0.47762   0.00000  Uiso   1.00
C344   C     0.01833   0.28240   0.46333   0.00000  Uiso   1.00
C345   C     0.02150   0.20778   0.44243   0.00000  Uiso   1.00
H346   H     0.75689   0.27506   0.48459   0.00000  Uiso   1.00
H347   H     0.69616   0.36989   0.40935   0.00000  Uiso   1.00
H348   H     0.72355   0.28496   0.59722   0.00000  Uiso   1.00
H349   H     0.83245   0.15793   0.44547   0.00000  Uiso   1.00
H350   H     0.65798   0.49457   0.32874   0.00000  Uiso   1.00
H351   H     0.71575   0.31547   0.72488   0.00000  Uiso   1.00
H352   H     0.94540   0.04760   0.40490   0.00000  Uiso   1.00
H353   H     0.98160   0.42556   0.50619   0.00000  Uiso   1.00
H354   H     0.93321   0.52865   0.43213   0.00000  Uiso   1.00
H355   H     0.96059   0.44372   0.62000   0.00000  Uiso   1.00
H356   H     0.06950   0.31669   0.46826   0.00000  Uiso   1.00
H357   H     0.85038   0.62343   0.34723   0.00000  Uiso   1.00
H358   H     0.90814   0.44432   0.74338   0.00000  Uiso   1.00
H359   H     0.13779   0.17646   0.42339   0.00000  Uiso   1.00
O360   O     0.71828   0.62411   0.28889   0.00000  Uiso   1.00
O361   O     0.79407   0.38912   0.80862   0.00000  Uiso   1.00
O362   O     0.09536   0.03769   0.38880   0.00000  Uiso   1.00
N363   N     0.70991   0.51074   0.34325   0.00000  Uiso   1.00
N364   N     0.76391   0.34330   0.71362   0.00000  Uiso   1.00
N365   N     0.97861   0.09286   0.41448   0.00000  Uiso   1.00
N366   N     0.81344   0.58008   0.35320   0.00000  Uiso   1.00
N367   N     0.86744   0.41264   0.72357   0.00000  Uiso   1.00
N368   N     0.08214   0.16220   0.42443   0.00000  Uiso   1.00
