data_job_06494
_audit_creation_date              2018-12-19
_audit_creation_method            'Materials Studio'
_symmetry_space_group_name_H-M    'P1'
_symmetry_Int_Tables_number       1
_symmetry_cell_setting            triclinic
loop_
_symmetry_equiv_pos_as_xyz
  x,y,z
_cell_length_a                    23.1499
_cell_length_b                    20.8152
_cell_length_c                    20.4893
_cell_angle_alpha                 119.2710
_cell_angle_beta                  82.2290
_cell_angle_gamma                 99.6212
loop_
_atom_site_label
_atom_site_type_symbol
_atom_site_fract_x
_atom_site_fract_y
_atom_site_fract_z
_atom_site_U_iso_or_equiv
_atom_site_adp_type
_atom_site_occupancy
C1     C     0.64537   0.90668   0.03414   0.00000  Uiso   1.00
C2     C     0.63197   0.97322   0.10961   0.00000  Uiso   1.00
C3     C     0.67330   0.02584   0.15730   0.00000  Uiso   1.00
C4     C     0.65216   0.08248   0.22381   0.00000  Uiso   1.00
C5     C     0.64054   0.18520   0.33826   0.00000  Uiso   1.00
C6     C     0.61366   0.83854   0.03882   0.00000  Uiso   1.00
C7     C     0.63960   0.77792   0.02698   0.00000  Uiso   1.00
C8     C     0.60305   0.72118   0.03388   0.00000  Uiso   1.00
C9     C     0.56300   0.61478   0.03837   0.00000  Uiso   1.00
C10    C     0.61437   0.91307   0.97681   0.00000  Uiso   1.00
C11    C     0.64090   0.91510   0.91281   0.00000  Uiso   1.00
C12    C     0.60495   0.92109   0.86748   0.00000  Uiso   1.00
C13    C     0.56599   0.93042   0.77569   0.00000  Uiso   1.00
C14    C     0.53433   0.91369   0.06743   0.00000  Uiso   1.00
C15    C     0.57166   0.97703   0.12770   0.00000  Uiso   1.00
C16    C     0.55045   0.03360   0.19414   0.00000  Uiso   1.00
C17    C     0.59175   0.08630   0.24192   0.00000  Uiso   1.00
C18    C     0.55336   0.84235   0.05690   0.00000  Uiso   1.00
C19    C     0.51676   0.78568   0.06382   0.00000  Uiso   1.00
C20    C     0.54263   0.72499   0.05199   0.00000  Uiso   1.00
C21    C     0.55406   0.91688   0.99489   0.00000  Uiso   1.00
C22    C     0.51806   0.92286   0.94965   0.00000  Uiso   1.00
C23    C     0.54453   0.92490   0.88560   0.00000  Uiso   1.00
H24    H     0.69232   0.90371   0.02006   0.00000  Uiso   1.00
H25    H     0.71997   0.02287   0.14329   0.00000  Uiso   1.00
H26    H     0.68627   0.77498   0.01298   0.00000  Uiso   1.00
H27    H     0.68757   0.91215   0.89883   0.00000  Uiso   1.00
H28    H     0.72403   0.15665   0.28790   0.00000  Uiso   1.00
H29    H     0.65298   0.63396   0.01311   0.00000  Uiso   1.00
H30    H     0.65572   0.92319   0.77240   0.00000  Uiso   1.00
H31    H     0.48738   0.91665   0.08151   0.00000  Uiso   1.00
H32    H     0.50378   0.03653   0.20812   0.00000  Uiso   1.00
H33    H     0.47009   0.78864   0.07781   0.00000  Uiso   1.00
H34    H     0.47139   0.92581   0.96366   0.00000  Uiso   1.00
H35    H     0.54856   0.16774   0.34053   0.00000  Uiso   1.00
H36    H     0.47751   0.64504   0.06572   0.00000  Uiso   1.00
H37    H     0.48025   0.93428   0.82503   0.00000  Uiso   1.00
O38    O     0.65078   0.24081   0.39640   0.00000  Uiso   1.00
O39    O     0.55757   0.55505   0.03586   0.00000  Uiso   1.00
O40    O     0.56117   0.93452   0.72007   0.00000  Uiso   1.00
N41    N     0.68048   0.14282   0.28291   0.00000  Uiso   1.00
N42    N     0.61406   0.65413   0.02600   0.00000  Uiso   1.00
N43    N     0.61662   0.92452   0.80095   0.00000  Uiso   1.00
N44    N     0.58606   0.14878   0.31122   0.00000  Uiso   1.00
N45    N     0.51964   0.66010   0.05431   0.00000  Uiso   1.00
N46    N     0.52220   0.93049   0.82927   0.00000  Uiso   1.00
C47    C     0.20606   0.74522   0.95176   0.00000  Uiso   1.00
C48    C     0.24464   0.72081   0.98840   0.00000  Uiso   1.00
C49    C     0.28268   0.76747   0.04419   0.00000  Uiso   1.00
C50    C     0.31412   0.73432   0.07034   0.00000  Uiso   1.00
C51    C     0.37502   0.70814   0.13156   0.00000  Uiso   1.00
C52    C     0.22211   0.70378   0.86778   0.00000  Uiso   1.00
C53    C     0.24118   0.73612   0.82216   0.00000  Uiso   1.00
C54    C     0.25365   0.68863   0.74678   0.00000  Uiso   1.00
C55    C     0.27952   0.63601   0.62073   0.00000  Uiso   1.00
C56    C     0.14335   0.71388   0.96293   0.00000  Uiso   1.00
C57    C     0.09620   0.75470   0.99729   0.00000  Uiso   1.00
C58    C     0.04235   0.71571   0.00200   0.00000  Uiso   1.00
C59    C     0.94595   0.67876   0.02369   0.00000  Uiso   1.00
C60    C     0.19426   0.60340   0.89900   0.00000  Uiso   1.00
C61    C     0.23823   0.64378   0.95974   0.00000  Uiso   1.00
C62    C     0.26962   0.61056   0.98581   0.00000  Uiso   1.00
C63    C     0.30769   0.65715   0.04163   0.00000  Uiso   1.00
C64    C     0.21569   0.62675   0.83912   0.00000  Uiso   1.00
C65    C     0.22812   0.57921   0.76379   0.00000  Uiso   1.00
C66    C     0.24722   0.61146   0.71807   0.00000  Uiso   1.00
C67    C     0.13694   0.63685   0.93427   0.00000  Uiso   1.00
C68    C     0.08315   0.59779   0.93892   0.00000  Uiso   1.00
C69    C     0.03593   0.63854   0.97329   0.00000  Uiso   1.00
H70    H     0.21105   0.80519   0.97406   0.00000  Uiso   1.00
H71    H     0.28763   0.82708   0.06634   0.00000  Uiso   1.00
H72    H     0.24614   0.79573   0.84435   0.00000  Uiso   1.00
H73    H     0.10118   0.81431   0.01946   0.00000  Uiso   1.00
H74    H     0.36972   0.81737   0.15600   0.00000  Uiso   1.00
H75    H     0.28221   0.75127   0.68791   0.00000  Uiso   1.00
H76    H     0.97654   0.79045   0.05716   0.00000  Uiso   1.00
H77    H     0.18926   0.54342   0.87668   0.00000  Uiso   1.00
H78    H     0.26465   0.55094   0.96363   0.00000  Uiso   1.00
H79    H     0.22315   0.51960   0.74163   0.00000  Uiso   1.00
H80    H     0.07820   0.53818   0.91674   0.00000  Uiso   1.00
H81    H     0.35107   0.59325   0.07262   0.00000  Uiso   1.00
H82    H     0.26356   0.52715   0.60453   0.00000  Uiso   1.00
H83    H     0.95789   0.56633   0.97379   0.00000  Uiso   1.00
O84    O     0.41039   0.71498   0.17324   0.00000  Uiso   1.00
O85    O     0.29557   0.62826   0.55913   0.00000  Uiso   1.00
O86    O     0.89454   0.67966   0.04358   0.00000  Uiso   1.00
N87    N     0.35498   0.76359   0.12445   0.00000  Uiso   1.00
N88    N     0.27317   0.70180   0.68682   0.00000  Uiso   1.00
N89    N     0.98739   0.73842   0.03203   0.00000  Uiso   1.00
N90    N     0.34494   0.64299   0.07959   0.00000  Uiso   1.00
N91    N     0.26313   0.58120   0.64196   0.00000  Uiso   1.00
N92    N     0.97735   0.61782   0.98716   0.00000  Uiso   1.00
C93    C     0.89124   0.10662   0.59195   0.00000  Uiso   1.00
C94    C     0.95165   0.12408   0.56024   0.00000  Uiso   1.00
C95    C     0.00189   0.15645   0.59993   0.00000  Uiso   1.00
C96    C     0.05285   0.16785   0.56081   0.00000  Uiso   1.00
C97    C     0.14655   0.19809   0.52315   0.00000  Uiso   1.00
C98    C     0.84935   0.14631   0.57663   0.00000  Uiso   1.00
C99    C     0.81356   0.19735   0.63010   0.00000  Uiso   1.00
C100   C     0.77839   0.22745   0.60476   0.00000  Uiso   1.00
C101   C     0.71323   0.29215   0.59255   0.00000  Uiso   1.00
C102   C     0.87353   0.02390   0.54299   0.00000  Uiso   1.00
C103   C     0.85805   0.97203   0.56817   0.00000  Uiso   1.00
C104   C     0.84323   0.89907   0.51450   0.00000  Uiso   1.00
C105   C     0.81561   0.77372   0.45005   0.00000  Uiso   1.00
C106   C     0.89241   0.06931   0.45187   0.00000  Uiso   1.00
C107   C     0.95229   0.10382   0.48416   0.00000  Uiso   1.00
C108   C     0.00319   0.11517   0.44495   0.00000  Uiso   1.00
C109   C     0.05349   0.14755   0.48458   0.00000  Uiso   1.00
C110   C     0.84998   0.12604   0.50055   0.00000  Uiso   1.00
C111   C     0.81486   0.15607   0.47512   0.00000  Uiso   1.00
C112   C     0.77903   0.20715   0.52854   0.00000  Uiso   1.00
C113   C     0.87417   0.00363   0.46690   0.00000  Uiso   1.00
C114   C     0.85936   0.93075   0.41319   0.00000  Uiso   1.00
C115   C     0.84387   0.87877   0.43828   0.00000  Uiso   1.00
H116   H     0.89074   0.12240   0.65118   0.00000  Uiso   1.00
H117   H     0.00138   0.17214   0.65882   0.00000  Uiso   1.00
H118   H     0.81307   0.21302   0.68898   0.00000  Uiso   1.00
H119   H     0.85757   0.98773   0.62705   0.00000  Uiso   1.00
H120   H     0.12431   0.21836   0.63373   0.00000  Uiso   1.00
H121   H     0.72724   0.30455   0.69732   0.00000  Uiso   1.00
H122   H     0.82107   0.82949   0.56674   0.00000  Uiso   1.00
H123   H     0.89291   0.05353   0.39263   0.00000  Uiso   1.00
H124   H     0.00367   0.09948   0.38608   0.00000  Uiso   1.00
H125   H     0.81536   0.14037   0.41624   0.00000  Uiso   1.00
H126   H     0.85985   0.91508   0.35431   0.00000  Uiso   1.00
H127   H     0.12617   0.15939   0.41237   0.00000  Uiso   1.00
H128   H     0.72910   0.24559   0.47596   0.00000  Uiso   1.00
H129   H     0.82292   0.77052   0.34538   0.00000  Uiso   1.00
O130   O     0.19806   0.22037   0.52341   0.00000  Uiso   1.00
O131   O     0.67711   0.33344   0.60683   0.00000  Uiso   1.00
O132   O     0.80021   0.71017   0.43552   0.00000  Uiso   1.00
N133   N     0.10955   0.19816   0.58253   0.00000  Uiso   1.00
N134   N     0.73832   0.27876   0.64199   0.00000  Uiso   1.00
N135   N     0.82603   0.83462   0.51991   0.00000  Uiso   1.00
N136   N     0.11055   0.16643   0.46342   0.00000  Uiso   1.00
N137   N     0.73932   0.24703   0.52287   0.00000  Uiso   1.00
N138   N     0.82703   0.80289   0.40079   0.00000  Uiso   1.00
C139   C     0.08599   0.45433   0.40173   0.00000  Uiso   1.00
C140   C     0.04530   0.51387   0.44843   0.00000  Uiso   1.00
C141   C     0.04535   0.55962   0.52540   0.00000  Uiso   1.00
C142   C     0.00468   0.61056   0.55765   0.00000  Uiso   1.00
C143   C     0.94750   0.70228   0.63673   0.00000  Uiso   1.00
C144   C     0.11697   0.47318   0.34160   0.00000  Uiso   1.00
C145   C     0.17728   0.48470   0.32877   0.00000  Uiso   1.00
C146   C     0.19694   0.50138   0.27108   0.00000  Uiso   1.00
C147   C     0.25103   0.52986   0.18428   0.00000  Uiso   1.00
C148   C     0.04615   0.38221   0.36058   0.00000  Uiso   1.00
C149   C     0.04691   0.31722   0.36368   0.00000  Uiso   1.00
C150   C     0.00695   0.25730   0.32196   0.00000  Uiso   1.00
C151   C     0.95107   0.14454   0.26463   0.00000  Uiso   1.00
C152   C     0.01368   0.46345   0.32210   0.00000  Uiso   1.00
C153   C     0.00603   0.51882   0.40517   0.00000  Uiso   1.00
C154   C     0.96535   0.56971   0.43730   0.00000  Uiso   1.00
C155   C     0.96533   0.61552   0.51432   0.00000  Uiso   1.00
C156   C     0.07770   0.47813   0.29835   0.00000  Uiso   1.00
C157   C     0.09728   0.49479   0.24066   0.00000  Uiso   1.00
C158   C     0.15760   0.50634   0.22774   0.00000  Uiso   1.00
C159   C     0.00687   0.38716   0.31733   0.00000  Uiso   1.00
C160   C     0.96691   0.32732   0.27559   0.00000  Uiso   1.00
C161   C     0.96761   0.26226   0.27862   0.00000  Uiso   1.00
H162   H     0.11657   0.45048   0.43540   0.00000  Uiso   1.00
H163   H     0.07575   0.55577   0.55886   0.00000  Uiso   1.00
H164   H     0.20766   0.48086   0.36224   0.00000  Uiso   1.00
H165   H     0.07731   0.31341   0.39716   0.00000  Uiso   1.00
H166   H     0.01320   0.67471   0.67665   0.00000  Uiso   1.00
H167   H     0.29133   0.51672   0.26207   0.00000  Uiso   1.00
H168   H     0.01646   0.16364   0.33569   0.00000  Uiso   1.00
H169   H     0.98311   0.46731   0.28842   0.00000  Uiso   1.00
H170   H     0.93496   0.57353   0.40382   0.00000  Uiso   1.00
H171   H     0.06687   0.49861   0.20720   0.00000  Uiso   1.00
H172   H     0.93652   0.33117   0.24212   0.00000  Uiso   1.00
H173   H     0.89893   0.68913   0.55082   0.00000  Uiso   1.00
H174   H     0.17706   0.53114   0.13623   0.00000  Uiso   1.00
H175   H     0.90219   0.17805   0.20986   0.00000  Uiso   1.00
O176   O     0.92682   0.75151   0.69230   0.00000  Uiso   1.00
O177   O     0.29171   0.54422   0.14836   0.00000  Uiso   1.00
O178   O     0.93109   0.08098   0.24497   0.00000  Uiso   1.00
N179   N     0.99290   0.66352   0.63120   0.00000  Uiso   1.00
N180   N     0.25294   0.51582   0.24360   0.00000  Uiso   1.00
N181   N     0.99597   0.18571   0.31242   0.00000  Uiso   1.00
N182   N     0.93141   0.67127   0.56349   0.00000  Uiso   1.00
N183   N     0.19145   0.52358   0.17589   0.00000  Uiso   1.00
N184   N     0.93448   0.19346   0.24471   0.00000  Uiso   1.00
C185   C     0.64191   0.46959   0.21763   0.00000  Uiso   1.00
C186   C     0.66127   0.48275   0.15055   0.00000  Uiso   1.00
C187   C     0.69433   0.54594   0.15310   0.00000  Uiso   1.00
C188   C     0.70749   0.54724   0.08558   0.00000  Uiso   1.00
C189   C     0.74051   0.57675   0.99170   0.00000  Uiso   1.00
C190   C     0.66499   0.39775   0.19929   0.00000  Uiso   1.00
C191   C     0.70116   0.38949   0.24281   0.00000  Uiso   1.00
C192   C     0.71744   0.31924   0.21631   0.00000  Uiso   1.00
C193   C     0.75619   0.21679   0.19812   0.00000  Uiso   1.00
C194   C     0.57522   0.45282   0.21777   0.00000  Uiso   1.00
C195   C     0.53590   0.49085   0.27685   0.00000  Uiso   1.00
C196   C     0.47660   0.46695   0.26592   0.00000  Uiso   1.00
C197   C     0.37597   0.45000   0.27643   0.00000  Uiso   1.00
C198   C     0.60651   0.35951   0.09318   0.00000  Uiso   1.00
C199   C     0.64205   0.42295   0.08296   0.00000  Uiso   1.00
C200   C     0.65516   0.42416   0.01541   0.00000  Uiso   1.00
C201   C     0.68823   0.48735   0.01786   0.00000  Uiso   1.00
C202   C     0.64576   0.33797   0.13169   0.00000  Uiso   1.00
C203   C     0.66199   0.26771   0.10512   0.00000  Uiso   1.00
C204   C     0.69818   0.25935   0.14859   0.00000  Uiso   1.00
C205   C     0.55599   0.39304   0.15018   0.00000  Uiso   1.00
C206   C     0.49674   0.36907   0.13916   0.00000  Uiso   1.00
C207   C     0.45734   0.40705   0.19821   0.00000  Uiso   1.00
H208   H     0.65688   0.51613   0.27026   0.00000  Uiso   1.00
H209   H     0.70920   0.59220   0.20543   0.00000  Uiso   1.00
H210   H     0.71602   0.43577   0.29513   0.00000  Uiso   1.00
H211   H     0.55080   0.53711   0.32915   0.00000  Uiso   1.00
H212   H     0.75875   0.65016   0.10373   0.00000  Uiso   1.00
H213   H     0.77312   0.32032   0.29288   0.00000  Uiso   1.00
H214   H     0.42470   0.53402   0.36464   0.00000  Uiso   1.00
H215   H     0.59154   0.31296   0.04055   0.00000  Uiso   1.00
H216   H     0.64028   0.37788   0.96311   0.00000  Uiso   1.00
H217   H     0.64711   0.22146   0.05281   0.00000  Uiso   1.00
H218   H     0.48188   0.32280   0.08684   0.00000  Uiso   1.00
H219   H     0.70282   0.47621   0.90706   0.00000  Uiso   1.00
H220   H     0.71718   0.14637   0.09621   0.00000  Uiso   1.00
H221   H     0.36877   0.36007   0.16797   0.00000  Uiso   1.00
O222   O     0.76404   0.60954   0.95859   0.00000  Uiso   1.00
O223   O     0.78288   0.17681   0.20676   0.00000  Uiso   1.00
O224   O     0.32577   0.45718   0.30090   0.00000  Uiso   1.00
N225   N     0.73889   0.60031   0.06807   0.00000  Uiso   1.00
N226   N     0.75233   0.29194   0.24491   0.00000  Uiso   1.00
N227   N     0.42659   0.49172   0.31201   0.00000  Uiso   1.00
N228   N     0.70879   0.50671   0.96224   0.00000  Uiso   1.00
N229   N     0.72223   0.19834   0.13908   0.00000  Uiso   1.00
N230   N     0.39649   0.39812   0.20618   0.00000  Uiso   1.00
C231   C     0.43686   0.21360   0.68574   0.00000  Uiso   1.00
C232   C     0.48308   0.17565   0.69622   0.00000  Uiso   1.00
C233   C     0.53842   0.20856   0.72204   0.00000  Uiso   1.00
C234   C     0.57424   0.16447   0.72768   0.00000  Uiso   1.00
C235   C     0.64887   0.11685   0.74695   0.00000  Uiso   1.00
C236   C     0.38211   0.20439   0.73235   0.00000  Uiso   1.00
C237   C     0.35256   0.26147   0.78854   0.00000  Uiso   1.00
C238   C     0.30338   0.24156   0.82459   0.00000  Uiso   1.00
C239   C     0.22123   0.23856   0.89992   0.00000  Uiso   1.00
C240   C     0.42154   0.16700   0.60407   0.00000  Uiso   1.00
C241   C     0.42511   0.19263   0.55241   0.00000  Uiso   1.00
C242   C     0.40911   0.14124   0.48046   0.00000  Uiso   1.00
C243   C     0.38818   0.08018   0.35661   0.00000  Uiso   1.00
C244   C     0.40206   0.07676   0.64985   0.00000  Uiso   1.00
C245   C     0.46418   0.10133   0.67673   0.00000  Uiso   1.00
C246   C     0.49992   0.05717   0.68233   0.00000  Uiso   1.00
C247   C     0.55530   0.09001   0.70815   0.00000  Uiso   1.00
C248   C     0.36321   0.13007   0.71286   0.00000  Uiso   1.00
C249   C     0.31406   0.11007   0.74883   0.00000  Uiso   1.00
C250   C     0.28444   0.16710   0.80506   0.00000  Uiso   1.00
C251   C     0.40264   0.09267   0.58457   0.00000  Uiso   1.00
C252   C     0.38662   0.04123   0.51270   0.00000  Uiso   1.00
C253   C     0.39018   0.06678   0.46093   0.00000  Uiso   1.00
H254   H     0.45157   0.27147   0.70093   0.00000  Uiso   1.00
H255   H     0.55303   0.26609   0.73713   0.00000  Uiso   1.00
H256   H     0.36719   0.31898   0.80361   0.00000  Uiso   1.00
H257   H     0.43974   0.25015   0.56751   0.00000  Uiso   1.00
H258   H     0.65717   0.22735   0.76869   0.00000  Uiso   1.00
H259   H     0.26531   0.33887   0.90886   0.00000  Uiso   1.00
H260   H     0.41829   0.19374   0.41100   0.00000  Uiso   1.00
H261   H     0.38735   0.01890   0.63467   0.00000  Uiso   1.00
H262   H     0.48528   0.99965   0.66724   0.00000  Uiso   1.00
H263   H     0.29945   0.05255   0.73372   0.00000  Uiso   1.00
H264   H     0.37200   0.98372   0.49763   0.00000  Uiso   1.00
H265   H     0.60218   0.01110   0.71197   0.00000  Uiso   1.00
H266   H     0.21033   0.12262   0.85214   0.00000  Uiso   1.00
H267   H     0.36331   0.97749   0.35428   0.00000  Uiso   1.00
O268   O     0.69525   0.11113   0.76297   0.00000  Uiso   1.00
O269   O     0.18115   0.25744   0.94686   0.00000  Uiso   1.00
O270   O     0.38186   0.06703   0.29368   0.00000  Uiso   1.00
N271   N     0.63079   0.17909   0.75086   0.00000  Uiso   1.00
N272   N     0.26444   0.28336   0.88192   0.00000  Uiso   1.00
N273   N     0.40744   0.14767   0.41647   0.00000  Uiso   1.00
N274   N     0.60120   0.06273   0.72034   0.00000  Uiso   1.00
N275   N     0.23485   0.16700   0.85139   0.00000  Uiso   1.00
N276   N     0.37786   0.03131   0.38594   0.00000  Uiso   1.00
C277   C     0.31649   0.19956   0.05234   0.00000  Uiso   1.00
C278   C     0.31291   0.12447   0.98157   0.00000  Uiso   1.00
C279   C     0.26230   0.07558   0.95636   0.00000  Uiso   1.00
C280   C     0.26820   0.00970   0.89034   0.00000  Uiso   1.00
C281   C     0.25433   0.89561   0.78642   0.00000  Uiso   1.00
C282   C     0.34386   0.25631   0.02703   0.00000  Uiso   1.00
C283   C     0.31928   0.31827   0.04006   0.00000  Uiso   1.00
C284   C     0.35124   0.36338   0.01232   0.00000  Uiso   1.00
C285   C     0.38544   0.45399   0.97903   0.00000  Uiso   1.00
C286   C     0.36156   0.19731   0.09879   0.00000  Uiso   1.00
C287   C     0.35187   0.20968   0.17216   0.00000  Uiso   1.00
C288   C     0.39874   0.20513   0.20485   0.00000  Uiso   1.00
C289   C     0.46042   0.20413   0.28297   0.00000  Uiso   1.00
C290   C     0.41696   0.16950   0.97993   0.00000  Uiso   1.00
C291   C     0.36748   0.10814   0.94224   0.00000  Uiso   1.00
C292   C     0.37346   0.04232   0.87625   0.00000  Uiso   1.00
C293   C     0.32287   0.99334   0.85095   0.00000  Uiso   1.00
C294   C     0.39843   0.23998   0.98771   0.00000  Uiso   1.00
C295   C     0.43044   0.28501   0.95995   0.00000  Uiso   1.00
C296   C     0.40591   0.34702   0.97292   0.00000  Uiso   1.00
C297   C     0.41613   0.18097   0.05947   0.00000  Uiso   1.00
C298   C     0.46303   0.17641   0.09205   0.00000  Uiso   1.00
C299   C     0.45341   0.18877   0.16545   0.00000  Uiso   1.00
H300   H     0.27401   0.21228   0.08296   0.00000  Uiso   1.00
H301   H     0.22008   0.08825   0.98681   0.00000  Uiso   1.00
H302   H     0.27705   0.33090   0.07050   0.00000  Uiso   1.00
H303   H     0.30964   0.22232   0.20258   0.00000  Uiso   1.00
H304   H     0.18435   0.94354   0.86285   0.00000  Uiso   1.00
H305   H     0.30449   0.45520   0.03934   0.00000  Uiso   1.00
H306   H     0.37320   0.22624   0.31786   0.00000  Uiso   1.00
H307   H     0.45945   0.15678   0.94931   0.00000  Uiso   1.00
H308   H     0.41569   0.02969   0.84583   0.00000  Uiso   1.00
H309   H     0.47267   0.27235   0.92952   0.00000  Uiso   1.00
H310   H     0.50525   0.16377   0.06160   0.00000  Uiso   1.00
H311   H     0.34312   0.89602   0.74842   0.00000  Uiso   1.00
H312   H     0.46326   0.40769   0.92491   0.00000  Uiso   1.00
H313   H     0.53197   0.17872   0.20343   0.00000  Uiso   1.00
O314   O     0.23160   0.83719   0.73995   0.00000  Uiso   1.00
O315   O     0.38923   0.50848   0.97152   0.00000  Uiso   1.00
O316   O     0.47937   0.20808   0.33693   0.00000  Uiso   1.00
N317   N     0.22772   0.94979   0.85013   0.00000  Uiso   1.00
N318   N     0.34004   0.42816   0.01513   0.00000  Uiso   1.00
N319   N     0.40428   0.21411   0.27553   0.00000  Uiso   1.00
N320   N     0.31315   0.92422   0.78856   0.00000  Uiso   1.00
N321   N     0.42547   0.40259   0.95355   0.00000  Uiso   1.00
N322   N     0.48972   0.18854   0.21395   0.00000  Uiso   1.00
C323   C     0.91201   0.35891   0.06461   0.00000  Uiso   1.00
C324   C     0.87382   0.36087   0.01066   0.00000  Uiso   1.00
C325   C     0.84087   0.30024   0.95725   0.00000  Uiso   1.00
C326   C     0.80887   0.31357   0.91335   0.00000  Uiso   1.00
C327   C     0.74941   0.30576   0.82819   0.00000  Uiso   1.00
C328   C     0.88997   0.41359   0.14313   0.00000  Uiso   1.00
C329   C     0.87060   0.39729   0.20109   0.00000  Uiso   1.00
C330   C     0.85221   0.45500   0.26871   0.00000  Uiso   1.00
C331   C     0.81786   0.52905   0.38923   0.00000  Uiso   1.00
C332   C     0.97344   0.39238   0.05171   0.00000  Uiso   1.00
C333   C     0.02426   0.35825   0.03283   0.00000  Uiso   1.00
C334   C     0.07615   0.39811   0.02349   0.00000  Uiso   1.00
C335   C     0.17141   0.43922   0.00208   0.00000  Uiso   1.00
C336   C     0.91379   0.49040   0.08163   0.00000  Uiso   1.00
C337   C     0.87479   0.43230   0.01991   0.00000  Uiso   1.00
C338   C     0.84284   0.44572   0.97607   0.00000  Uiso   1.00
C339   C     0.80984   0.38512   0.92260   0.00000  Uiso   1.00
C340   C     0.89094   0.48501   0.15237   0.00000  Uiso   1.00
C341   C     0.87258   0.54277   0.21992   0.00000  Uiso   1.00
C342   C     0.85318   0.52655   0.27797   0.00000  Uiso   1.00
C343   C     0.97441   0.46380   0.06095   0.00000  Uiso   1.00
C344   C     0.02624   0.50373   0.05165   0.00000  Uiso   1.00
C345   C     0.07712   0.46966   0.03276   0.00000  Uiso   1.00
H346   H     0.91125   0.30331   0.05742   0.00000  Uiso   1.00
H347   H     0.84012   0.24498   0.95012   0.00000  Uiso   1.00
H348   H     0.86986   0.34201   0.19393   0.00000  Uiso   1.00
H349   H     0.02349   0.30298   0.02568   0.00000  Uiso   1.00
H350   H     0.76167   0.21181   0.83525   0.00000  Uiso   1.00
H351   H     0.82440   0.41642   0.34934   0.00000  Uiso   1.00
H352   H     0.14837   0.33410   0.99457   0.00000  Uiso   1.00
H353   H     0.91455   0.54601   0.08882   0.00000  Uiso   1.00
H354   H     0.84360   0.50100   0.98324   0.00000  Uiso   1.00
H355   H     0.87334   0.59803   0.22705   0.00000  Uiso   1.00
H356   H     0.02697   0.55899   0.05881   0.00000  Uiso   1.00
H357   H     0.76449   0.41960   0.86213   0.00000  Uiso   1.00
H358   H     0.82722   0.62421   0.37623   0.00000  Uiso   1.00
H359   H     0.15119   0.54190   0.02145   0.00000  Uiso   1.00
O360   O     0.71634   0.28172   0.77868   0.00000  Uiso   1.00
O361   O     0.79864   0.55016   0.45315   0.00000  Uiso   1.00
O362   O     0.22368   0.44216   0.98770   0.00000  Uiso   1.00
N363   N     0.77208   0.26689   0.85605   0.00000  Uiso   1.00
N364   N     0.83072   0.45818   0.33669   0.00000  Uiso   1.00
N365   N     0.13361   0.38123   0.00504   0.00000  Uiso   1.00
N366   N     0.77360   0.37870   0.87052   0.00000  Uiso   1.00
N367   N     0.83223   0.56999   0.35116   0.00000  Uiso   1.00
N368   N     0.13512   0.49304   0.01950   0.00000  Uiso   1.00
C369   C     0.18782   0.82511   0.24553   0.00000  Uiso   1.00
C370   C     0.12224   0.81308   0.26437   0.00000  Uiso   1.00
C371   C     0.07996   0.77119   0.21288   0.00000  Uiso   1.00
C372   C     0.02234   0.76701   0.24136   0.00000  Uiso   1.00
C373   C     0.92276   0.74277   0.25887   0.00000  Uiso   1.00
C374   C     0.21843   0.79936   0.28858   0.00000  Uiso   1.00
C375   C     0.25702   0.74593   0.25745   0.00000  Uiso   1.00
C376   C     0.28037   0.73021   0.30632   0.00000  Uiso   1.00
C377   C     0.33014   0.68469   0.36143   0.00000  Uiso   1.00
C378   C     0.20421   0.90885   0.28105   0.00000  Uiso   1.00
C379   C     0.23086   0.94749   0.24359   0.00000  Uiso   1.00
C380   C     0.24226   0.02396   0.28612   0.00000  Uiso   1.00
C381   C     0.26996   0.14845   0.32953   0.00000  Uiso   1.00
C382   C     0.16069   0.89220   0.38767   0.00000  Uiso   1.00
C383   C     0.10751   0.84953   0.34157   0.00000  Uiso   1.00
C384   C     0.04994   0.84542   0.37014   0.00000  Uiso   1.00
C385   C     0.00757   0.80352   0.31870   0.00000  Uiso   1.00
C386   C     0.20369   0.83580   0.36578   0.00000  Uiso   1.00
C387   C     0.22699   0.82016   0.41471   0.00000  Uiso   1.00
C388   C     0.26560   0.76672   0.38366   0.00000  Uiso   1.00
C389   C     0.18947   0.94530   0.35825   0.00000  Uiso   1.00
C390   C     0.20083   0.02172   0.40085   0.00000  Uiso   1.00
C391   C     0.22749   0.06046   0.36346   0.00000  Uiso   1.00
H392   H     0.19930   0.79674   0.18543   0.00000  Uiso   1.00
H393   H     0.09139   0.74299   0.15314   0.00000  Uiso   1.00
H394   H     0.26842   0.71774   0.19771   0.00000  Uiso   1.00
H395   H     0.24226   0.91927   0.18385   0.00000  Uiso   1.00
H396   H     0.96524   0.69945   0.15139   0.00000  Uiso   1.00
H397   H     0.33854   0.64623   0.24537   0.00000  Uiso   1.00
H398   H     0.28339   0.07119   0.21614   0.00000  Uiso   1.00
H399   H     0.14921   0.92057   0.44778   0.00000  Uiso   1.00
H400   H     0.03854   0.87362   0.42988   0.00000  Uiso   1.00
H401   H     0.21558   0.84837   0.47445   0.00000  Uiso   1.00
H402   H     0.18942   0.04990   0.46059   0.00000  Uiso   1.00
H403   H     0.92235   0.80547   0.37600   0.00000  Uiso   1.00
H404   H     0.29565   0.75226   0.46998   0.00000  Uiso   1.00
H405   H     0.24050   0.17722   0.44076   0.00000  Uiso   1.00
O406   O     0.87190   0.71932   0.24719   0.00000  Uiso   1.00
O407   O     0.36166   0.64951   0.37049   0.00000  Uiso   1.00
O408   O     0.28930   0.20705   0.33215   0.00000  Uiso   1.00
N409   N     0.97033   0.73086   0.20671   0.00000  Uiso   1.00
N410   N     0.31934   0.68109   0.29457   0.00000  Uiso   1.00
N411   N     0.26779   0.07839   0.26725   0.00000  Uiso   1.00
N412   N     0.94726   0.78791   0.32757   0.00000  Uiso   1.00
N413   N     0.29626   0.73815   0.41543   0.00000  Uiso   1.00
N414   N     0.24471   0.13545   0.38811   0.00000  Uiso   1.00
C415   C     0.93553   0.52230   0.75847   0.00000  Uiso   1.00
C416   C     0.92270   0.48537   0.67597   0.00000  Uiso   1.00
C417   C     0.86801   0.47298   0.64857   0.00000  Uiso   1.00
C418   C     0.86543   0.43838   0.57125   0.00000  Uiso   1.00
C419   C     0.83784   0.38427   0.45046   0.00000  Uiso   1.00
C420   C     0.96499   0.46699   0.76739   0.00000  Uiso   1.00
C421   C     0.94587   0.43915   0.81685   0.00000  Uiso   1.00
C422   C     0.97890   0.38909   0.81649   0.00000  Uiso   1.00
C423   C     0.01700   0.30649   0.83768   0.00000  Uiso   1.00
C424   C     0.98241   0.58752   0.77135   0.00000  Uiso   1.00
C425   C     0.97794   0.66103   0.82416   0.00000  Uiso   1.00
C426   C     0.02565   0.71244   0.82715   0.00000  Uiso   1.00
C427   C     0.09078   0.81698   0.85449   0.00000  Uiso   1.00
C428   C     0.02820   0.48291   0.66989   0.00000  Uiso   1.00
C429   C     0.97303   0.46398   0.62786   0.00000  Uiso   1.00
C430   C     0.97053   0.42940   0.55056   0.00000  Uiso   1.00
C431   C     0.91585   0.41695   0.52304   0.00000  Uiso   1.00
C432   C     0.01532   0.44560   0.71928   0.00000  Uiso   1.00
C433   C     0.04839   0.39557   0.71885   0.00000  Uiso   1.00
C434   C     0.02933   0.36766   0.76829   0.00000  Uiso   1.00
C435   C     0.03274   0.56613   0.72324   0.00000  Uiso   1.00
C436   C     0.08046   0.61744   0.72615   0.00000  Uiso   1.00
C437   C     0.07607   0.69101   0.77895   0.00000  Uiso   1.00
H438   H     0.89635   0.53895   0.79593   0.00000  Uiso   1.00
H439   H     0.82907   0.48953   0.68582   0.00000  Uiso   1.00
H440   H     0.90693   0.45572   0.85408   0.00000  Uiso   1.00
H441   H     0.93899   0.67756   0.86139   0.00000  Uiso   1.00
H442   H     0.77667   0.42529   0.54252   0.00000  Uiso   1.00
H443   H     0.94084   0.35401   0.89733   0.00000  Uiso   1.00
H444   H     0.00846   0.82180   0.91273   0.00000  Uiso   1.00
H445   H     0.06738   0.46625   0.63244   0.00000  Uiso   1.00
H446   H     0.00949   0.41285   0.51334   0.00000  Uiso   1.00
H447   H     0.08734   0.37903   0.68161   0.00000  Uiso   1.00
H448   H     0.11940   0.60087   0.68891   0.00000  Uiso   1.00
H449   H     0.92310   0.36304   0.40253   0.00000  Uiso   1.00
H450   H     0.08727   0.29177   0.75735   0.00000  Uiso   1.00
H451   H     0.15489   0.75956   0.77275   0.00000  Uiso   1.00
O452   O     0.80871   0.36032   0.39713   0.00000  Uiso   1.00
O453   O     0.02410   0.26683   0.86265   0.00000  Uiso   1.00
O454   O     0.11281   0.88055   0.88285   0.00000  Uiso   1.00
N455   N     0.81908   0.41798   0.52592   0.00000  Uiso   1.00
N456   N     0.97257   0.35134   0.85764   0.00000  Uiso   1.00
N457   N     0.03578   0.78868   0.87205   0.00000  Uiso   1.00
N458   N     0.89788   0.38449   0.45059   0.00000  Uiso   1.00
N459   N     0.05136   0.31784   0.78231   0.00000  Uiso   1.00
N460   N     0.11458   0.75518   0.79672   0.00000  Uiso   1.00
C461   C     0.42897   0.47389   0.68469   0.00000  Uiso   1.00
C462   C     0.37202   0.43982   0.70830   0.00000  Uiso   1.00
C463   C     0.33554   0.37911   0.66051   0.00000  Uiso   1.00
C464   C     0.28546   0.35644   0.69306   0.00000  Uiso   1.00
C465   C     0.19901   0.29796   0.71792   0.00000  Uiso   1.00
C466   C     0.42189   0.55535   0.71476   0.00000  Uiso   1.00
C467   C     0.42735   0.59178   0.67240   0.00000  Uiso   1.00
C468   C     0.41925   0.66637   0.71040   0.00000  Uiso   1.00
C469   C     0.41027   0.78727   0.74530   0.00000  Uiso   1.00
C470   C     0.47649   0.47291   0.72888   0.00000  Uiso   1.00
C471   C     0.52787   0.44004   0.69838   0.00000  Uiso   1.00
C472   C     0.56574   0.44523   0.74827   0.00000  Uiso   1.00
C473   C     0.64153   0.43813   0.80507   0.00000  Uiso   1.00
C474   C     0.40489   0.54160   0.82750   0.00000  Uiso   1.00
C475   C     0.35895   0.47660   0.78587   0.00000  Uiso   1.00
C476   C     0.30891   0.45401   0.81851   0.00000  Uiso   1.00
C477   C     0.27236   0.39328   0.77077   0.00000  Uiso   1.00
C478   C     0.40882   0.59213   0.79233   0.00000  Uiso   1.00
C479   C     0.40071   0.66668   0.83040   0.00000  Uiso   1.00
C480   C     0.40615   0.70321   0.78811   0.00000  Uiso   1.00
C481   C     0.46342   0.50968   0.80645   0.00000  Uiso   1.00
C482   C     0.50123   0.51494   0.85639   0.00000  Uiso   1.00
C483   C     0.55265   0.48207   0.82598   0.00000  Uiso   1.00
H484   H     0.43915   0.44527   0.62430   0.00000  Uiso   1.00
H485   H     0.34567   0.35067   0.60048   0.00000  Uiso   1.00
H486   H     0.43747   0.56331   0.61238   0.00000  Uiso   1.00
H487   H     0.53797   0.41158   0.63836   0.00000  Uiso   1.00
H488   H     0.23626   0.26202   0.60827   0.00000  Uiso   1.00
H489   H     0.42984   0.71039   0.63336   0.00000  Uiso   1.00
H490   H     0.64176   0.39045   0.68814   0.00000  Uiso   1.00
H491   H     0.39471   0.57023   0.88789   0.00000  Uiso   1.00
H492   H     0.29880   0.48248   0.87854   0.00000  Uiso   1.00
H493   H     0.39060   0.69512   0.89043   0.00000  Uiso   1.00
H494   H     0.49109   0.54340   0.91641   0.00000  Uiso   1.00
H495   H     0.19822   0.36901   0.83396   0.00000  Uiso   1.00
H496   H     0.39180   0.81738   0.85904   0.00000  Uiso   1.00
H497   H     0.60372   0.49744   0.91382   0.00000  Uiso   1.00
O498   O     0.15494   0.25556   0.71020   0.00000  Uiso   1.00
O499   O     0.40892   0.84379   0.74311   0.00000  Uiso   1.00
O500   O     0.68695   0.42404   0.81498   0.00000  Uiso   1.00
N501   N     0.24048   0.29923   0.66267   0.00000  Uiso   1.00
N502   N     0.42146   0.71843   0.68613   0.00000  Uiso   1.00
N503   N     0.61959   0.41933   0.73734   0.00000  Uiso   1.00
N504   N     0.22000   0.35680   0.78411   0.00000  Uiso   1.00
N505   N     0.40098   0.77600   0.80756   0.00000  Uiso   1.00
N506   N     0.59912   0.47690   0.85878   0.00000  Uiso   1.00
C507   C     0.67675   0.82288   0.31730   0.00000  Uiso   1.00
C508   C     0.62585   0.85620   0.30958   0.00000  Uiso   1.00
C509   C     0.57472   0.81666   0.27425   0.00000  Uiso   1.00
C510   C     0.53343   0.85737   0.27315   0.00000  Uiso   1.00
C511   C     0.45295   0.89732   0.25611   0.00000  Uiso   1.00
C512   C     0.73121   0.85042   0.28297   0.00000  Uiso   1.00
C513   C     0.76867   0.80601   0.22527   0.00000  Uiso   1.00
C514   C     0.81608   0.84185   0.20178   0.00000  Uiso   1.00
C515   C     0.89920   0.87282   0.14346   0.00000  Uiso   1.00
C516   C     0.68526   0.85977   0.40104   0.00000  Uiso   1.00
C517   C     0.68410   0.82323   0.44263   0.00000  Uiso   1.00
C518   C     0.69284   0.86695   0.51854   0.00000  Uiso   1.00
C519   C     0.70461   0.91244   0.64355   0.00000  Uiso   1.00
C520   C     0.69435   0.96551   0.37816   0.00000  Uiso   1.00
C521   C     0.63541   0.93367   0.34264   0.00000  Uiso   1.00
C522   C     0.59419   0.97446   0.34159   0.00000  Uiso   1.00
C523   C     0.54301   0.93498   0.30627   0.00000  Uiso   1.00
C524   C     0.74077   0.92788   0.31603   0.00000  Uiso   1.00
C525   C     0.78814   0.96381   0.29262   0.00000  Uiso   1.00
C526   C     0.82566   0.91946   0.23490   0.00000  Uiso   1.00
C527   C     0.69482   0.93724   0.43411   0.00000  Uiso   1.00
C528   C     0.70356   0.98103   0.50997   0.00000  Uiso   1.00
C529   C     0.70241   0.94456   0.55166   0.00000  Uiso   1.00
H530   H     0.66932   0.76257   0.29155   0.00000  Uiso   1.00
H531   H     0.56734   0.75671   0.24867   0.00000  Uiso   1.00
H532   H     0.76127   0.74606   0.19970   0.00000  Uiso   1.00
H533   H     0.67670   0.76328   0.41702   0.00000  Uiso   1.00
H534   H     0.45851   0.78437   0.21567   0.00000  Uiso   1.00
H535   H     0.86742   0.76191   0.11245   0.00000  Uiso   1.00
H536   H     0.68910   0.79822   0.57071   0.00000  Uiso   1.00
H537   H     0.70179   0.02583   0.40390   0.00000  Uiso   1.00
H538   H     0.60160   0.03441   0.36718   0.00000  Uiso   1.00
H539   H     0.79553   0.02376   0.31822   0.00000  Uiso   1.00
H540   H     0.71096   0.04098   0.53554   0.00000  Uiso   1.00
H541   H     0.48631   0.00976   0.31186   0.00000  Uiso   1.00
H542   H     0.89523   0.98730   0.20864   0.00000  Uiso   1.00
H543   H     0.71691   0.02362   0.66690   0.00000  Uiso   1.00
O544   O     0.40592   0.89796   0.23756   0.00000  Uiso   1.00
O545   O     0.94241   0.86850   0.10215   0.00000  Uiso   1.00
O546   O     0.70845   0.91614   0.70337   0.00000  Uiso   1.00
N547   N     0.47880   0.83624   0.24337   0.00000  Uiso   1.00
N548   N     0.86110   0.81524   0.14685   0.00000  Uiso   1.00
N549   N     0.69441   0.84919   0.57528   0.00000  Uiso   1.00
N550   N     0.49376   0.95752   0.29512   0.00000  Uiso   1.00
N551   N     0.87606   0.93652   0.19861   0.00000  Uiso   1.00
N552   N     0.70937   0.97047   0.62704   0.00000  Uiso   1.00
