data_job_06857
_audit_creation_date              2018-12-19
_audit_creation_method            'Materials Studio'
_symmetry_space_group_name_H-M    'P1'
_symmetry_Int_Tables_number       1
_symmetry_cell_setting            triclinic
loop_
_symmetry_equiv_pos_as_xyz
  x,y,z
_cell_length_a                    21.5582
_cell_length_b                    22.8646
_cell_length_c                    26.9219
_cell_angle_alpha                 80.1832
_cell_angle_beta                  90.6742
_cell_angle_gamma                 116.2804
loop_
_atom_site_label
_atom_site_type_symbol
_atom_site_fract_x
_atom_site_fract_y
_atom_site_fract_z
_atom_site_U_iso_or_equiv
_atom_site_adp_type
_atom_site_occupancy
C1     C     0.14400   0.98460   0.61675   0.00000  Uiso   1.00
C2     C     0.14818   0.02087   0.56289   0.00000  Uiso   1.00
C3     C     0.09345   0.02646   0.53850   0.00000  Uiso   1.00
C4     C     0.10789   0.06165   0.48924   0.00000  Uiso   1.00
C5     C     0.10421   0.11360   0.40924   0.00000  Uiso   1.00
C6     C     0.17028   0.93352   0.61284   0.00000  Uiso   1.00
C7     C     0.13414   0.86567   0.63045   0.00000  Uiso   1.00
C8     C     0.16718   0.82734   0.62323   0.00000  Uiso   1.00
C9     C     0.19784   0.74368   0.62081   0.00000  Uiso   1.00
C10    C     0.19779   0.03543   0.64429   0.00000  Uiso   1.00
C11    C     0.18479   0.05325   0.68837   0.00000  Uiso   1.00
C12    C     0.24100   0.10070   0.70764   0.00000  Uiso   1.00
C13    C     0.31437   0.17526   0.75406   0.00000  Uiso   1.00
C14    C     0.26695   0.03717   0.57263   0.00000  Uiso   1.00
C15    C     0.21496   0.04942   0.53893   0.00000  Uiso   1.00
C16    C     0.22948   0.08462   0.48968   0.00000  Uiso   1.00
C17    C     0.17479   0.09026   0.46523   0.00000  Uiso   1.00
C18    C     0.23706   0.96207   0.58887   0.00000  Uiso   1.00
C19    C     0.27017   0.92383   0.58163   0.00000  Uiso   1.00
C20    C     0.23409   0.85594   0.59922   0.00000  Uiso   1.00
C21    C     0.26457   0.06398   0.62033   0.00000  Uiso   1.00
C22    C     0.32082   0.11141   0.63954   0.00000  Uiso   1.00
C23    C     0.30790   0.12930   0.68363   0.00000  Uiso   1.00
H24    H     0.09201   0.96237   0.63542   0.00000  Uiso   1.00
H25    H     0.04178   0.00435   0.55706   0.00000  Uiso   1.00
H26    H     0.08246   0.84359   0.64900   0.00000  Uiso   1.00
H27    H     0.13310   0.03114   0.70690   0.00000  Uiso   1.00
H28    H     0.01554   0.06346   0.45962   0.00000  Uiso   1.00
H29    H     0.10133   0.72450   0.65348   0.00000  Uiso   1.00
H30    H     0.20811   0.11998   0.77559   0.00000  Uiso   1.00
H31    H     0.31894   0.05940   0.55397   0.00000  Uiso   1.00
H32    H     0.28117   0.10671   0.47114   0.00000  Uiso   1.00
H33    H     0.32185   0.94595   0.56308   0.00000  Uiso   1.00
H34    H     0.37249   0.13349   0.62098   0.00000  Uiso   1.00
H35    H     0.20983   0.14654   0.38988   0.00000  Uiso   1.00
H36    H     0.29563   0.80757   0.58375   0.00000  Uiso   1.00
H37    H     0.40241   0.20305   0.70585   0.00000  Uiso   1.00
O38    O     0.08374   0.13435   0.37173   0.00000  Uiso   1.00
O39    O     0.19630   0.68965   0.62609   0.00000  Uiso   1.00
O40    O     0.33639   0.20851   0.78628   0.00000  Uiso   1.00
N41    N     0.06645   0.07653   0.45458   0.00000  Uiso   1.00
N42    N     0.14666   0.75962   0.63582   0.00000  Uiso   1.00
N43    N     0.24650   0.12935   0.74999   0.00000  Uiso   1.00
N44    N     0.17100   0.12124   0.41705   0.00000  Uiso   1.00
N45    N     0.25121   0.80433   0.59830   0.00000  Uiso   1.00
N46    N     0.35105   0.17405   0.71246   0.00000  Uiso   1.00
C47    C     0.29465   0.52686   0.62596   0.00000  Uiso   1.00
C48    C     0.30881   0.50584   0.57822   0.00000  Uiso   1.00
C49    C     0.34188   0.46630   0.57549   0.00000  Uiso   1.00
C50    C     0.34985   0.45271   0.52829   0.00000  Uiso   1.00
C51    C     0.37556   0.41628   0.46069   0.00000  Uiso   1.00
C52    C     0.32796   0.60250   0.61461   0.00000  Uiso   1.00
C53    C     0.37713   0.64423   0.64247   0.00000  Uiso   1.00
C54    C     0.40120   0.71202   0.62590   0.00000  Uiso   1.00
C55    C     0.45660   0.82566   0.61481   0.00000  Uiso   1.00
C56    C     0.21658   0.50390   0.63093   0.00000  Uiso   1.00
C57    C     0.17209   0.46273   0.67253   0.00000  Uiso   1.00
C58    C     0.10239   0.44750   0.66971   0.00000  Uiso   1.00
C59    C     0.98486   0.40804   0.68396   0.00000  Uiso   1.00
C60    C     0.24998   0.57304   0.54700   0.00000  Uiso   1.00
C61    C     0.28455   0.53093   0.53534   0.00000  Uiso   1.00
C62    C     0.29246   0.51739   0.48813   0.00000  Uiso   1.00
C63    C     0.32554   0.47784   0.48532   0.00000  Uiso   1.00
C64    C     0.30370   0.62759   0.57172   0.00000  Uiso   1.00
C65    C     0.32770   0.69533   0.55511   0.00000  Uiso   1.00
C66    C     0.37689   0.73715   0.58293   0.00000  Uiso   1.00
C67    C     0.19231   0.52898   0.58805   0.00000  Uiso   1.00
C68    C     0.12267   0.51382   0.58517   0.00000  Uiso   1.00
C69    C     0.07809   0.47263   0.62674   0.00000  Uiso   1.00
H70    H     0.31355   0.50734   0.65935   0.00000  Uiso   1.00
H71    H     0.36066   0.44691   0.60868   0.00000  Uiso   1.00
H72    H     0.39589   0.62481   0.67565   0.00000  Uiso   1.00
H73    H     0.19089   0.44333   0.70570   0.00000  Uiso   1.00
H74    H     0.40222   0.39098   0.53360   0.00000  Uiso   1.00
H75    H     0.47648   0.76610   0.67482   0.00000  Uiso   1.00
H76    H     0.04420   0.38342   0.73819   0.00000  Uiso   1.00
H77    H     0.23109   0.59257   0.51361   0.00000  Uiso   1.00
H78    H     0.27368   0.53681   0.45495   0.00000  Uiso   1.00
H79    H     0.30891   0.71472   0.52192   0.00000  Uiso   1.00
H80    H     0.10391   0.53324   0.55197   0.00000  Uiso   1.00
H81    H     0.33163   0.46396   0.40882   0.00000  Uiso   1.00
H82    H     0.40589   0.83908   0.55005   0.00000  Uiso   1.00
H83    H     0.97361   0.45639   0.61342   0.00000  Uiso   1.00
O84    O     0.39645   0.38927   0.43525   0.00000  Uiso   1.00
O85    O     0.49387   0.88141   0.62053   0.00000  Uiso   1.00
O86    O     0.92673   0.37933   0.70367   0.00000  Uiso   1.00
N87    N     0.37975   0.41580   0.51228   0.00000  Uiso   1.00
N88    N     0.44919   0.76651   0.64432   0.00000  Uiso   1.00
N89    N     0.04504   0.40875   0.70357   0.00000  Uiso   1.00
N90    N     0.34176   0.45506   0.44514   0.00000  Uiso   1.00
N91    N     0.41120   0.80578   0.57717   0.00000  Uiso   1.00
N92    N     0.00706   0.44801   0.63643   0.00000  Uiso   1.00
C93    C     0.78610   0.15235   0.60347   0.00000  Uiso   1.00
C94    C     0.83322   0.20509   0.55985   0.00000  Uiso   1.00
C95    C     0.85852   0.27316   0.55605   0.00000  Uiso   1.00
C96    C     0.90086   0.31311   0.51316   0.00000  Uiso   1.00
C97    C     0.97150   0.39914   0.45115   0.00000  Uiso   1.00
C98    C     0.72215   0.10664   0.57991   0.00000  Uiso   1.00
C99    C     0.65406   0.09193   0.59297   0.00000  Uiso   1.00
C100   C     0.60290   0.04899   0.56697   0.00000  Uiso   1.00
C101   C     0.50109   0.98212   0.53612   0.00000  Uiso   1.00
C102   C     0.82364   0.11099   0.62310   0.00000  Uiso   1.00
C103   C     0.84086   0.09993   0.67248   0.00000  Uiso   1.00
C104   C     0.87513   0.06065   0.68284   0.00000  Uiso   1.00
C105   C     0.93090   0.00055   0.71904   0.00000  Uiso   1.00
C106   C     0.81632   0.10224   0.53407   0.00000  Uiso   1.00
C107   C     0.84963   0.17787   0.52216   0.00000  Uiso   1.00
C108   C     0.89195   0.21772   0.47926   0.00000  Uiso   1.00
C109   C     0.91731   0.28585   0.47540   0.00000  Uiso   1.00
C110   C     0.73856   0.07942   0.54221   0.00000  Uiso   1.00
C111   C     0.68749   0.03648   0.51619   0.00000  Uiso   1.00
C112   C     0.61934   0.02172   0.52920   0.00000  Uiso   1.00
C113   C     0.84005   0.08378   0.58540   0.00000  Uiso   1.00
C114   C     0.87429   0.04450   0.59569   0.00000  Uiso   1.00
C115   C     0.89157   0.03338   0.64507   0.00000  Uiso   1.00
H116   H     0.77332   0.17354   0.63282   0.00000  Uiso   1.00
H117   H     0.84580   0.29421   0.58523   0.00000  Uiso   1.00
H118   H     0.64138   0.11299   0.62215   0.00000  Uiso   1.00
H119   H     0.82816   0.12100   0.70164   0.00000  Uiso   1.00
H120   H     0.93338   0.41599   0.51583   0.00000  Uiso   1.00
H121   H     0.50233   0.03387   0.59369   0.00000  Uiso   1.00
H122   H     0.89619   0.05076   0.76131   0.00000  Uiso   1.00
H123   H     0.82909   0.08105   0.50472   0.00000  Uiso   1.00
H124   H     0.90464   0.19665   0.45010   0.00000  Uiso   1.00
H125   H     0.70021   0.01543   0.48702   0.00000  Uiso   1.00
H126   H     0.88698   0.02344   0.56651   0.00000  Uiso   1.00
H127   H     0.98113   0.33680   0.40615   0.00000  Uiso   1.00
H128   H     0.55008   0.95468   0.48401   0.00000  Uiso   1.00
H129   H     0.94393   0.97157   0.65163   0.00000  Uiso   1.00
O130   O     0.00592   0.45410   0.42736   0.00000  Uiso   1.00
O131   O     0.44040   0.95277   0.52952   0.00000  Uiso   1.00
O132   O     0.95714   0.97493   0.74943   0.00000  Uiso   1.00
N133   N     0.93426   0.38149   0.49752   0.00000  Uiso   1.00
N134   N     0.53126   0.02423   0.57031   0.00000  Uiso   1.00
N135   N     0.89946   0.04001   0.72702   0.00000  Uiso   1.00
N136   N     0.95995   0.33888   0.43850   0.00000  Uiso   1.00
N137   N     0.55695   0.98163   0.51129   0.00000  Uiso   1.00
N138   N     0.92515   0.99740   0.66800   0.00000  Uiso   1.00
C139   C     0.22935   0.88201   0.19870   0.00000  Uiso   1.00
C140   C     0.25843   0.91608   0.14457   0.00000  Uiso   1.00
C141   C     0.31509   0.91642   0.12035   0.00000  Uiso   1.00
C142   C     0.33352   0.95040   0.07078   0.00000  Uiso   1.00
C143   C     0.38427   0.99834   0.99044   0.00000  Uiso   1.00
C144   C     0.15321   0.83500   0.19534   0.00000  Uiso   1.00
C145   C     0.12139   0.76716   0.21380   0.00000  Uiso   1.00
C146   C     0.05125   0.73289   0.20697   0.00000  Uiso   1.00
C147   C     0.93863   0.65496   0.20547   0.00000  Uiso   1.00
C148   C     0.22981   0.93588   0.22540   0.00000  Uiso   1.00
C149   C     0.26238   0.95287   0.26915   0.00000  Uiso   1.00
C150   C     0.25672   0.00353   0.28764   0.00000  Uiso   1.00
C151   C     0.26303   0.08223   0.33282   0.00000  Uiso   1.00
C152   C     0.16135   0.94176   0.15377   0.00000  Uiso   1.00
C153   C     0.22149   0.94853   0.12017   0.00000  Uiso   1.00
C154   C     0.23985   0.98253   0.07063   0.00000  Uiso   1.00
C155   C     0.29652   0.98292   0.04633   0.00000  Uiso   1.00
C156   C     0.11627   0.86745   0.17093   0.00000  Uiso   1.00
C157   C     0.04616   0.83327   0.16408   0.00000  Uiso   1.00
C158   C     0.01424   0.76540   0.18252   0.00000  Uiso   1.00
C159   C     0.19287   0.96834   0.20099   0.00000  Uiso   1.00
C160   C     0.18715   0.01898   0.21943   0.00000  Uiso   1.00
C161   C     0.21971   0.03604   0.26319   0.00000  Uiso   1.00
H162   H     0.25810   0.85674   0.21771   0.00000  Uiso   1.00
H163   H     0.34365   0.89129   0.13925   0.00000  Uiso   1.00
H164   H     0.14999   0.74206   0.23269   0.00000  Uiso   1.00
H165   H     0.29096   0.92774   0.28803   0.00000  Uiso   1.00
H166   H     0.42220   0.94389   0.04149   0.00000  Uiso   1.00
H167   H     0.01384   0.62924   0.23853   0.00000  Uiso   1.00
H168   H     0.31110   0.02078   0.35522   0.00000  Uiso   1.00
H169   H     0.13259   0.96702   0.13476   0.00000  Uiso   1.00
H170   H     0.21125   0.00764   0.05175   0.00000  Uiso   1.00
H171   H     0.01759   0.85840   0.14519   0.00000  Uiso   1.00
H172   H     0.15856   0.04408   0.20053   0.00000  Uiso   1.00
H173   H     0.31473   0.03832   0.97047   0.00000  Uiso   1.00
H174   H     0.90637   0.72366   0.16752   0.00000  Uiso   1.00
H175   H     0.20364   0.11520   0.28421   0.00000  Uiso   1.00
O176   O     0.42246   0.01581   0.95286   0.00000  Uiso   1.00
O177   O     0.88671   0.60300   0.21138   0.00000  Uiso   1.00
O178   O     0.27672   0.11669   0.36448   0.00000  Uiso   1.00
N179   N     0.38612   0.96056   0.03617   0.00000  Uiso   1.00
N180   N     0.00433   0.66637   0.22039   0.00000  Uiso   1.00
N181   N     0.28223   0.03241   0.32949   0.00000  Uiso   1.00
N182   N     0.32829   0.01137   0.99796   0.00000  Uiso   1.00
N183   N     0.94651   0.71718   0.18217   0.00000  Uiso   1.00
N184   N     0.22441   0.08322   0.29128   0.00000  Uiso   1.00
C185   C     0.86181   0.76490   0.03351   0.00000  Uiso   1.00
C186   C     0.86570   0.78368   0.97609   0.00000  Uiso   1.00
C187   C     0.80952   0.77238   0.94679   0.00000  Uiso   1.00
C188   C     0.82393   0.79329   0.89490   0.00000  Uiso   1.00
C189   C     0.81959   0.81775   0.80906   0.00000  Uiso   1.00
C190   C     0.90682   0.82896   0.05230   0.00000  Uiso   1.00
C191   C     0.88521   0.85573   0.08707   0.00000  Uiso   1.00
C192   C     0.93425   0.91474   0.09934   0.00000  Uiso   1.00
C193   C     0.99377   0.00948   0.13184   0.00000  Uiso   1.00
C194   C     0.89893   0.72126   0.04468   0.00000  Uiso   1.00
C195   C     0.87071   0.65748   0.07307   0.00000  Uiso   1.00
C196   C     0.91311   0.62583   0.07893   0.00000  Uiso   1.00
C197   C     0.96038   0.55335   0.09961   0.00000  Uiso   1.00
C198   C     0.98732   0.82210   0.99346   0.00000  Uiso   1.00
C199   C     0.93387   0.81475   0.95434   0.00000  Uiso   1.00
C200   C     0.94837   0.83567   0.90248   0.00000  Uiso   1.00
C201   C     0.89222   0.82441   0.87311   0.00000  Uiso   1.00
C202   C     0.97499   0.86003   0.03055   0.00000  Uiso   1.00
C203   C     0.02407   0.91902   0.04276   0.00000  Uiso   1.00
C204   C     0.00254   0.94587   0.07755   0.00000  Uiso   1.00
C205   C     0.96710   0.75233   0.02293   0.00000  Uiso   1.00
C206   C     0.00956   0.72077   0.02876   0.00000  Uiso   1.00
C207   C     0.98140   0.65696   0.05714   0.00000  Uiso   1.00
H208   H     0.80875   0.74071   0.05045   0.00000  Uiso   1.00
H209   H     0.75677   0.74834   0.96364   0.00000  Uiso   1.00
H210   H     0.83246   0.83167   0.10391   0.00000  Uiso   1.00
H211   H     0.81795   0.63345   0.08990   0.00000  Uiso   1.00
H212   H     0.72921   0.77053   0.85781   0.00000  Uiso   1.00
H213   H     0.88881   0.94621   0.15358   0.00000  Uiso   1.00
H214   H     0.85822   0.52824   0.12405   0.00000  Uiso   1.00
H215   H     0.04039   0.84629   0.97652   0.00000  Uiso   1.00
H216   H     0.00113   0.85972   0.88566   0.00000  Uiso   1.00
H217   H     0.07681   0.94305   0.02592   0.00000  Uiso   1.00
H218   H     0.06231   0.74483   0.01192   0.00000  Uiso   1.00
H219   H     0.92754   0.86093   0.79452   0.00000  Uiso   1.00
H220   H     0.08714   0.03661   0.09029   0.00000  Uiso   1.00
H221   H     0.05655   0.61864   0.06075   0.00000  Uiso   1.00
O222   O     0.79837   0.82267   0.76773   0.00000  Uiso   1.00
O223   O     0.00776   0.05315   0.15577   0.00000  Uiso   1.00
O224   O     0.96762   0.50479   0.11702   0.00000  Uiso   1.00
N225   N     0.78127   0.78995   0.85539   0.00000  Uiso   1.00
N226   N     0.93049   0.95421   0.13190   0.00000  Uiso   1.00
N227   N     0.90189   0.56345   0.10430   0.00000  Uiso   1.00
N228   N     0.88799   0.83859   0.82133   0.00000  Uiso   1.00
N229   N     0.03721   0.00285   0.09784   0.00000  Uiso   1.00
N230   N     0.00861   0.61209   0.07025   0.00000  Uiso   1.00
C231   C     0.91993   0.27858   0.04435   0.00000  Uiso   1.00
C232   C     0.94387   0.33910   0.00198   0.00000  Uiso   1.00
C233   C     0.96604   0.40419   0.00825   0.00000  Uiso   1.00
C234   C     0.98582   0.45247   0.96473   0.00000  Uiso   1.00
C235   C     0.02337   0.54891   0.90624   0.00000  Uiso   1.00
C236   C     0.96584   0.24514   0.03723   0.00000  Uiso   1.00
C237   C     0.00648   0.23123   0.07316   0.00000  Uiso   1.00
C238   C     0.04475   0.20042   0.05931   0.00000  Uiso   1.00
C239   C     0.11639   0.15096   0.05558   0.00000  Uiso   1.00
C240   C     0.84715   0.23095   0.03321   0.00000  Uiso   1.00
C241   C     0.78798   0.20509   0.06576   0.00000  Uiso   1.00
C242   C     0.72632   0.16231   0.04853   0.00000  Uiso   1.00
C243   C     0.61365   0.09081   0.03856   0.00000  Uiso   1.00
C244   C     0.91563   0.24858   0.95588   0.00000  Uiso   1.00
C245   C     0.94153   0.32280   0.95392   0.00000  Uiso   1.00
C246   C     0.96128   0.37099   0.91037   0.00000  Uiso   1.00
C247   C     0.98347   0.43614   0.91658   0.00000  Uiso   1.00
C248   C     0.96351   0.22885   0.98918   0.00000  Uiso   1.00
C249   C     0.00172   0.19804   0.97528   0.00000  Uiso   1.00
C250   C     0.04241   0.18409   0.01117   0.00000  Uiso   1.00
C251   C     0.84481   0.21465   0.98516   0.00000  Uiso   1.00
C252   C     0.78322   0.17190   0.96788   0.00000  Uiso   1.00
C253   C     0.72398   0.14598   0.00039   0.00000  Uiso   1.00
H254   H     0.92175   0.29127   0.08176   0.00000  Uiso   1.00
H255   H     0.96785   0.41678   0.04545   0.00000  Uiso   1.00
H256   H     0.00828   0.24384   0.11034   0.00000  Uiso   1.00
H257   H     0.78981   0.21771   0.10295   0.00000  Uiso   1.00
H258   H     0.01794   0.54874   0.98400   0.00000  Uiso   1.00
H259   H     0.10317   0.18409   0.12084   0.00000  Uiso   1.00
H260   H     0.64250   0.12897   0.10524   0.00000  Uiso   1.00
H261   H     0.91381   0.23589   0.91847   0.00000  Uiso   1.00
H262   H     0.95946   0.35837   0.87319   0.00000  Uiso   1.00
H263   H     0.99990   0.18544   0.93809   0.00000  Uiso   1.00
H264   H     0.78143   0.15930   0.93069   0.00000  Uiso   1.00
H265   H     0.01114   0.50134   0.84419   0.00000  Uiso   1.00
H266   H     0.09637   0.13668   0.98103   0.00000  Uiso   1.00
H267   H     0.63570   0.08156   0.96543   0.00000  Uiso   1.00
O268   O     0.04474   0.60661   0.88726   0.00000  Uiso   1.00
O269   O     0.15655   0.12818   0.06679   0.00000  Uiso   1.00
O270   O     0.55215   0.05588   0.04633   0.00000  Uiso   1.00
N271   N     0.01006   0.52078   0.95731   0.00000  Uiso   1.00
N272   N     0.08976   0.17986   0.08524   0.00000  Uiso   1.00
N273   N     0.65907   0.12831   0.07067   0.00000  Uiso   1.00
N274   N     0.00640   0.49527   0.88208   0.00000  Uiso   1.00
N275   N     0.08610   0.15435   0.01001   0.00000  Uiso   1.00
N276   N     0.65541   0.10280   0.99543   0.00000  Uiso   1.00
C277   C     0.86908   0.16989   0.20225   0.00000  Uiso   1.00
C278   C     0.86530   0.13944   0.25780   0.00000  Uiso   1.00
C279   C     0.92071   0.13874   0.28421   0.00000  Uiso   1.00
C280   C     0.90655   0.10845   0.33478   0.00000  Uiso   1.00
C281   C     0.91091   0.06554   0.41750   0.00000  Uiso   1.00
C282   C     0.83990   0.21987   0.20097   0.00000  Uiso   1.00
C283   C     0.87395   0.28678   0.17958   0.00000  Uiso   1.00
C284   C     0.83840   0.32419   0.18231   0.00000  Uiso   1.00
C285   C     0.80330   0.40614   0.17676   0.00000  Uiso   1.00
C286   C     0.81728   0.11436   0.17736   0.00000  Uiso   1.00
C287   C     0.83231   0.09258   0.13612   0.00000  Uiso   1.00
C288   C     0.77771   0.04117   0.11895   0.00000  Uiso   1.00
C289   C     0.70749   0.95930   0.07675   0.00000  Uiso   1.00
C290   C     0.74539   0.11735   0.24511   0.00000  Uiso   1.00
C291   C     0.79812   0.11091   0.28108   0.00000  Uiso   1.00
C292   C     0.78386   0.08061   0.33162   0.00000  Uiso   1.00
C293   C     0.83925   0.07985   0.35810   0.00000  Uiso   1.00
C294   C     0.77272   0.19133   0.22424   0.00000  Uiso   1.00
C295   C     0.73710   0.22865   0.22700   0.00000  Uiso   1.00
C296   C     0.77109   0.29561   0.20563   0.00000  Uiso   1.00
C297   C     0.75010   0.08582   0.20064   0.00000  Uiso   1.00
C298   C     0.69546   0.03444   0.18353   0.00000  Uiso   1.00
C299   C     0.71040   0.01258   0.14227   0.00000  Uiso   1.00
H300   H     0.92138   0.19212   0.18413   0.00000  Uiso   1.00
H301   H     0.97270   0.16084   0.26619   0.00000  Uiso   1.00
H302   H     0.92594   0.30885   0.16157   0.00000  Uiso   1.00
H303   H     0.88430   0.11467   0.11811   0.00000  Uiso   1.00
H304   H     0.99997   0.11359   0.36743   0.00000  Uiso   1.00
H305   H     0.90136   0.42569   0.14682   0.00000  Uiso   1.00
H306   H     0.81357   0.01623   0.05518   0.00000  Uiso   1.00
H307   H     0.69308   0.09513   0.26323   0.00000  Uiso   1.00
H308   H     0.73187   0.05853   0.34963   0.00000  Uiso   1.00
H309   H     0.68511   0.20655   0.24501   0.00000  Uiso   1.00
H310   H     0.64348   0.01237   0.20155   0.00000  Uiso   1.00
H311   H     0.80450   0.03056   0.43515   0.00000  Uiso   1.00
H312   H     0.70590   0.34266   0.21454   0.00000  Uiso   1.00
H313   H     0.61810   0.93319   0.12291   0.00000  Uiso   1.00
O314   O     0.93187   0.04976   0.45670   0.00000  Uiso   1.00
O315   O     0.80250   0.45923   0.16727   0.00000  Uiso   1.00
O316   O     0.68732   0.92202   0.04704   0.00000  Uiso   1.00
N317   N     0.94864   0.09906   0.37151   0.00000  Uiso   1.00
N318   N     0.85645   0.39086   0.16526   0.00000  Uiso   1.00
N319   N     0.77437   0.00806   0.07958   0.00000  Uiso   1.00
N320   N     0.84346   0.05438   0.40795   0.00000  Uiso   1.00
N321   N     0.75127   0.34618   0.20170   0.00000  Uiso   1.00
N322   N     0.66919   0.96338   0.11602   0.00000  Uiso   1.00
C323   C     0.62485   0.31849   0.33569   0.00000  Uiso   1.00
C324   C     0.59685   0.31553   0.38829   0.00000  Uiso   1.00
C325   C     0.54866   0.33739   0.39887   0.00000  Uiso   1.00
C326   C     0.52970   0.33033   0.44946   0.00000  Uiso   1.00
C327   C     0.48189   0.32995   0.52526   0.00000  Uiso   1.00
C328   C     0.60983   0.24751   0.33259   0.00000  Uiso   1.00
C329   C     0.57255   0.21219   0.29634   0.00000  Uiso   1.00
C330   C     0.56452   0.14787   0.30004   0.00000  Uiso   1.00
C331   C     0.53691   0.04191   0.28936   0.00000  Uiso   1.00
C332   C     0.70352   0.35717   0.33486   0.00000  Uiso   1.00
C333   C     0.74504   0.41404   0.30051   0.00000  Uiso   1.00
C334   C     0.81590   0.44204   0.30612   0.00000  Uiso   1.00
C335   C     0.93377   0.50635   0.29895   0.00000  Uiso   1.00
C336   C     0.67688   0.26706   0.40672   0.00000  Uiso   1.00
C337   C     0.62511   0.28760   0.42687   0.00000  Uiso   1.00
C338   C     0.60622   0.28050   0.47745   0.00000  Uiso   1.00
C339   C     0.55801   0.30235   0.48811   0.00000  Uiso   1.00
C340   C     0.63809   0.21958   0.37117   0.00000  Uiso   1.00
C341   C     0.63012   0.15530   0.37493   0.00000  Uiso   1.00
C342   C     0.59283   0.11989   0.33869   0.00000  Uiso   1.00
C343   C     0.73179   0.32924   0.37344   0.00000  Uiso   1.00
C344   C     0.80260   0.35715   0.37910   0.00000  Uiso   1.00
C345   C     0.84421   0.41406   0.34476   0.00000  Uiso   1.00
H346   H     0.60285   0.34023   0.30566   0.00000  Uiso   1.00
H347   H     0.52679   0.35900   0.36900   0.00000  Uiso   1.00
H348   H     0.55069   0.23382   0.26649   0.00000  Uiso   1.00
H349   H     0.72315   0.43564   0.27066   0.00000  Uiso   1.00
H350   H     0.45492   0.36747   0.45625   0.00000  Uiso   1.00
H351   H     0.50533   0.10353   0.24009   0.00000  Uiso   1.00
H352   H     0.86899   0.52912   0.24888   0.00000  Uiso   1.00
H353   H     0.69888   0.24532   0.43675   0.00000  Uiso   1.00
H354   H     0.62810   0.25888   0.50730   0.00000  Uiso   1.00
H355   H     0.65200   0.13370   0.40478   0.00000  Uiso   1.00
H356   H     0.82445   0.33553   0.40896   0.00000  Uiso   1.00
H357   H     0.53714   0.28621   0.56850   0.00000  Uiso   1.00
H358   H     0.58755   0.02227   0.35233   0.00000  Uiso   1.00
H359   H     0.95121   0.44786   0.36112   0.00000  Uiso   1.00
O360   O     0.44771   0.33745   0.55641   0.00000  Uiso   1.00
O361   O     0.51386   0.99119   0.27281   0.00000  Uiso   1.00
O362   O     0.99097   0.54955   0.28435   0.00000  Uiso   1.00
N363   N     0.48399   0.34649   0.47299   0.00000  Uiso   1.00
N364   N     0.53111   0.09972   0.27089   0.00000  Uiso   1.00
N365   N     0.87111   0.49760   0.27910   0.00000  Uiso   1.00
N366   N     0.52824   0.30277   0.53338   0.00000  Uiso   1.00
N367   N     0.57536   0.05600   0.33129   0.00000  Uiso   1.00
N368   N     0.91535   0.45388   0.33950   0.00000  Uiso   1.00
C369   C     0.15277   0.78339   0.37293   0.00000  Uiso   1.00
C370   C     0.11160   0.72904   0.41775   0.00000  Uiso   1.00
C371   C     0.07660   0.66164   0.41694   0.00000  Uiso   1.00
C372   C     0.04203   0.61995   0.46190   0.00000  Uiso   1.00
C373   C     0.97806   0.53176   0.52479   0.00000  Uiso   1.00
C374   C     0.22569   0.82030   0.38969   0.00000  Uiso   1.00
C375   C     0.28661   0.82963   0.36528   0.00000  Uiso   1.00
C376   C     0.34807   0.86477   0.38661   0.00000  Uiso   1.00
C377   C     0.46124   0.91831   0.40591   0.00000  Uiso   1.00
C378   C     0.12160   0.83223   0.36704   0.00000  Uiso   1.00
C379   C     0.09501   0.85162   0.32358   0.00000  Uiso   1.00
C380   C     0.06886   0.89682   0.32584   0.00000  Uiso   1.00
C381   C     0.02041   0.96889   0.30997   0.00000  Uiso   1.00
C382   C     0.15361   0.82920   0.45419   0.00000  Uiso   1.00
C383   C     0.11206   0.75392   0.46189   0.00000  Uiso   1.00
C384   C     0.07753   0.71232   0.50686   0.00000  Uiso   1.00
C385   C     0.04248   0.64487   0.50612   0.00000  Uiso   1.00
C386   C     0.22615   0.84517   0.43383   0.00000  Uiso   1.00
C387   C     0.28754   0.88031   0.45520   0.00000  Uiso   1.00
C388   C     0.34853   0.88969   0.43083   0.00000  Uiso   1.00
C389   C     0.12206   0.85711   0.41118   0.00000  Uiso   1.00
C390   C     0.09595   0.90229   0.41350   0.00000  Uiso   1.00
C391   C     0.06932   0.92175   0.37006   0.00000  Uiso   1.00
H392   H     0.15242   0.76403   0.33856   0.00000  Uiso   1.00
H393   H     0.07626   0.64241   0.38277   0.00000  Uiso   1.00
H394   H     0.28623   0.81038   0.33112   0.00000  Uiso   1.00
H395   H     0.09467   0.83236   0.28943   0.00000  Uiso   1.00
H396   H     0.99205   0.51854   0.45127   0.00000  Uiso   1.00
H397   H     0.43480   0.87274   0.34234   0.00000  Uiso   1.00
H398   H     0.03084   0.91909   0.25442   0.00000  Uiso   1.00
H399   H     0.15397   0.84857   0.48856   0.00000  Uiso   1.00
H400   H     0.07790   0.73158   0.54101   0.00000  Uiso   1.00
H401   H     0.28788   0.89956   0.48935   0.00000  Uiso   1.00
H402   H     0.09631   0.92154   0.44766   0.00000  Uiso   1.00
H403   H     0.99338   0.59092   0.57970   0.00000  Uiso   1.00
H404   H     0.43613   0.94512   0.47077   0.00000  Uiso   1.00
H405   H     0.03218   0.99147   0.38286   0.00000  Uiso   1.00
O406   O     0.94267   0.47624   0.54728   0.00000  Uiso   1.00
O407   O     0.52353   0.94095   0.40437   0.00000  Uiso   1.00
O408   O     0.99355   0.00176   0.28903   0.00000  Uiso   1.00
N409   N     0.00279   0.55163   0.47429   0.00000  Uiso   1.00
N410   N     0.41673   0.88278   0.37246   0.00000  Uiso   1.00
N411   N     0.03909   0.92612   0.29026   0.00000  Uiso   1.00
N412   N     0.00351   0.59057   0.54340   0.00000  Uiso   1.00
N413   N     0.41745   0.92172   0.44156   0.00000  Uiso   1.00
N414   N     0.03980   0.96507   0.35937   0.00000  Uiso   1.00
C415   C     0.67783   0.05259   0.79585   0.00000  Uiso   1.00
C416   C     0.64701   0.01658   0.84931   0.00000  Uiso   1.00
C417   C     0.59017   0.01615   0.87334   0.00000  Uiso   1.00
C418   C     0.57004   0.98024   0.92228   0.00000  Uiso   1.00
C419   C     0.51681   0.92955   0.00166   0.00000  Uiso   1.00
C420   C     0.75397   0.09817   0.80077   0.00000  Uiso   1.00
C421   C     0.78706   0.16636   0.78398   0.00000  Uiso   1.00
C422   C     0.85697   0.19913   0.79206   0.00000  Uiso   1.00
C423   C     0.96981   0.27512   0.79604   0.00000  Uiso   1.00
C424   C     0.67726   0.99985   0.76774   0.00000  Uiso   1.00
C425   C     0.64587   0.98537   0.72316   0.00000  Uiso   1.00
C426   C     0.65121   0.93537   0.70341   0.00000  Uiso   1.00
C427   C     0.64495   0.85869   0.65610   0.00000  Uiso   1.00
C428   C     0.74314   0.98957   0.84004   0.00000  Uiso   1.00
C429   C     0.68249   0.98234   0.87332   0.00000  Uiso   1.00
C430   C     0.66243   0.94642   0.92224   0.00000  Uiso   1.00
C431   C     0.60557   0.94594   0.94633   0.00000  Uiso   1.00
C432   C     0.78945   0.06394   0.82478   0.00000  Uiso   1.00
C433   C     0.85932   0.09663   0.83288   0.00000  Uiso   1.00
C434   C     0.89251   0.16484   0.81610   0.00000  Uiso   1.00
C435   C     0.71274   0.96561   0.79174   0.00000  Uiso   1.00
C436   C     0.71813   0.91563   0.77206   0.00000  Uiso   1.00
C437   C     0.68675   0.90108   0.72746   0.00000  Uiso   1.00
H438   H     0.65022   0.07925   0.77716   0.00000  Uiso   1.00
H439   H     0.56274   0.04266   0.85475   0.00000  Uiso   1.00
H440   H     0.75960   0.19283   0.76540   0.00000  Uiso   1.00
H441   H     0.61843   0.01187   0.70459   0.00000  Uiso   1.00
H442   H     0.48141   0.98701   0.95137   0.00000  Uiso   1.00
H443   H     0.89651   0.30366   0.76296   0.00000  Uiso   1.00
H444   H     0.59882   0.92207   0.63472   0.00000  Uiso   1.00
H445   H     0.77076   0.96292   0.85873   0.00000  Uiso   1.00
H446   H     0.68990   0.91993   0.94080   0.00000  Uiso   1.00
H447   H     0.88676   0.07012   0.85145   0.00000  Uiso   1.00
H448   H     0.74559   0.88915   0.79065   0.00000  Uiso   1.00
H449   H     0.58462   0.88741   0.02121   0.00000  Uiso   1.00
H450   H     0.99972   0.20406   0.83280   0.00000  Uiso   1.00
H451   H     0.70203   0.82246   0.70457   0.00000  Uiso   1.00
O452   O     0.47766   0.91105   0.03881   0.00000  Uiso   1.00
O453   O     0.02225   0.32649   0.79162   0.00000  Uiso   1.00
O454   O     0.63169   0.82584   0.62338   0.00000  Uiso   1.00
N455   N     0.51679   0.96945   0.95654   0.00000  Uiso   1.00
N456   N     0.90488   0.26551   0.78039   0.00000  Uiso   1.00
N457   N     0.62659   0.90876   0.66050   0.00000  Uiso   1.00
N458   N     0.57233   0.91586   0.99412   0.00000  Uiso   1.00
N459   N     0.96041   0.21192   0.81798   0.00000  Uiso   1.00
N460   N     0.68212   0.85517   0.69808   0.00000  Uiso   1.00
C461   C     0.31542   0.53563   0.79639   0.00000  Uiso   1.00
C462   C     0.37551   0.58126   0.82320   0.00000  Uiso   1.00
C463   C     0.44432   0.61538   0.80429   0.00000  Uiso   1.00
C464   C     0.49148   0.65458   0.83463   0.00000  Uiso   1.00
C465   C     0.58798   0.72467   0.86904   0.00000  Uiso   1.00
C466   C     0.28207   0.46885   0.83234   0.00000  Uiso   1.00
C467   C     0.27232   0.40846   0.82111   0.00000  Uiso   1.00
C468   C     0.24082   0.35303   0.85915   0.00000  Uiso   1.00
C469   C     0.19221   0.24859   0.90773   0.00000  Uiso   1.00
C470   C     0.26222   0.56291   0.79362   0.00000  Uiso   1.00
C471   C     0.23575   0.58158   0.74982   0.00000  Uiso   1.00
C472   C     0.18752   0.60533   0.75526   0.00000  Uiso   1.00
C473   C     0.10809   0.64692   0.74372   0.00000  Uiso   1.00
C474   C     0.27681   0.54458   0.88391   0.00000  Uiso   1.00
C475   C     0.35454   0.58612   0.87074   0.00000  Uiso   1.00
C476   C     0.40161   0.62528   0.90112   0.00000  Uiso   1.00
C477   C     0.47047   0.65945   0.88225   0.00000  Uiso   1.00
C478   C     0.26111   0.47371   0.87988   0.00000  Uiso   1.00
C479   C     0.22961   0.41835   0.91794   0.00000  Uiso   1.00
C480   C     0.21981   0.35789   0.90677   0.00000  Uiso   1.00
C481   C     0.24125   0.56777   0.84115   0.00000  Uiso   1.00
C482   C     0.19305   0.59148   0.84666   0.00000  Uiso   1.00
C483   C     0.16651   0.61019   0.80289   0.00000  Uiso   1.00
H484   H     0.33174   0.53185   0.75938   0.00000  Uiso   1.00
H485   H     0.46052   0.61161   0.76749   0.00000  Uiso   1.00
H486   H     0.28854   0.40472   0.78431   0.00000  Uiso   1.00
H487   H     0.25199   0.57782   0.71304   0.00000  Uiso   1.00
H488   H     0.59406   0.70216   0.79746   0.00000  Uiso   1.00
H489   H     0.23141   0.26591   0.83292   0.00000  Uiso   1.00
H490   H     0.15432   0.63093   0.68263   0.00000  Uiso   1.00
H491   H     0.26049   0.54835   0.92093   0.00000  Uiso   1.00
H492   H     0.38536   0.62903   0.93791   0.00000  Uiso   1.00
H493   H     0.21338   0.42213   0.95472   0.00000  Uiso   1.00
H494   H     0.17683   0.59523   0.88345   0.00000  Uiso   1.00
H495   H     0.53306   0.71629   0.93578   0.00000  Uiso   1.00
H496   H     0.17041   0.28004   0.97123   0.00000  Uiso   1.00
H497   H     0.09332   0.64506   0.82094   0.00000  Uiso   1.00
O498   O     0.64700   0.76198   0.87488   0.00000  Uiso   1.00
O499   O     0.17120   0.18964   0.92139   0.00000  Uiso   1.00
O500   O     0.07007   0.66853   0.72422   0.00000  Uiso   1.00
N501   N     0.56256   0.69443   0.82768   0.00000  Uiso   1.00
N502   N     0.22352   0.28656   0.86083   0.00000  Uiso   1.00
N503   N     0.15144   0.62780   0.72033   0.00000  Uiso   1.00
N504   N     0.52974   0.70203   0.90211   0.00000  Uiso   1.00
N505   N     0.19070   0.29417   0.93526   0.00000  Uiso   1.00
N506   N     0.11861   0.63541   0.79475   0.00000  Uiso   1.00
C507   C     0.17367   0.90582   0.80649   0.00000  Uiso   1.00
C508   C     0.17702   0.86247   0.85521   0.00000  Uiso   1.00
C509   C     0.14001   0.79390   0.86750   0.00000  Uiso   1.00
C510   C     0.15028   0.76343   0.91389   0.00000  Uiso   1.00
C511   C     0.14851   0.69052   0.98454   0.00000  Uiso   1.00
C512   C     0.15360   0.95631   0.82260   0.00000  Uiso   1.00
C513   C     0.09692   0.96664   0.80747   0.00000  Uiso   1.00
C514   C     0.08749   0.01518   0.82641   0.00000  Uiso   1.00
C515   C     0.04940   0.08799   0.84640   0.00000  Uiso   1.00
C516   C     0.24798   0.94516   0.78315   0.00000  Uiso   1.00
C517   C     0.27065   0.94613   0.73485   0.00000  Uiso   1.00
C518   C     0.34068   0.98528   0.72057   0.00000  Uiso   1.00
C519   C     0.44911   0.04077   0.67932   0.00000  Uiso   1.00
C520   C     0.25772   0.97365   0.86702   0.00000  Uiso   1.00
C521   C     0.22267   0.89932   0.88808   0.00000  Uiso   1.00
C522   C     0.23300   0.86894   0.93447   0.00000  Uiso   1.00
C523   C     0.19602   0.80033   0.94683   0.00000  Uiso   1.00
C524   C     0.19925   0.99315   0.85548   0.00000  Uiso   1.00
C525   C     0.18991   0.04169   0.87444   0.00000  Uiso   1.00
C526   C     0.13322   0.05209   0.85934   0.00000  Uiso   1.00
C527   C     0.29363   0.98200   0.81603   0.00000  Uiso   1.00
C528   C     0.36364   0.02116   0.80182   0.00000  Uiso   1.00
C529   C     0.38641   0.02219   0.75350   0.00000  Uiso   1.00
H530   H     0.13812   0.87714   0.78090   0.00000  Uiso   1.00
H531   H     0.10468   0.76541   0.84205   0.00000  Uiso   1.00
H532   H     0.06160   0.93813   0.78202   0.00000  Uiso   1.00
H533   H     0.23530   0.91761   0.70942   0.00000  Uiso   1.00
H534   H     0.08772   0.65778   0.92435   0.00000  Uiso   1.00
H535   H     0.99690   0.02199   0.79777   0.00000  Uiso   1.00
H536   H     0.36318   0.97872   0.64467   0.00000  Uiso   1.00
H537   H     0.29326   0.00233   0.89262   0.00000  Uiso   1.00
H538   H     0.26833   0.89746   0.95990   0.00000  Uiso   1.00
H539   H     0.22525   0.07019   0.89988   0.00000  Uiso   1.00
H540   H     0.39895   0.04967   0.82727   0.00000  Uiso   1.00
H541   H     0.22054   0.76496   0.02001   0.00000  Uiso   1.00
H542   H     0.12972   0.12918   0.89343   0.00000  Uiso   1.00
H543   H     0.49600   0.08591   0.74032   0.00000  Uiso   1.00
O544   O     0.13491   0.64013   0.01443   0.00000  Uiso   1.00
O545   O     0.01577   0.11797   0.84836   0.00000  Uiso   1.00
O546   O     0.49632   0.06120   0.64749   0.00000  Uiso   1.00
N547   N     0.12241   0.69739   0.93763   0.00000  Uiso   1.00
N548   N     0.03749   0.03790   0.81929   0.00000  Uiso   1.00
N549   N     0.37993   0.99746   0.67614   0.00000  Uiso   1.00
N550   N     0.19388   0.75507   0.98910   0.00000  Uiso   1.00
N551   N     0.10896   0.09558   0.87076   0.00000  Uiso   1.00
N552   N     0.45140   0.05514   0.72761   0.00000  Uiso   1.00
