data_job_01586
_audit_creation_date              2018-12-19
_audit_creation_method            'Materials Studio'
_symmetry_space_group_name_H-M    'P1'
_symmetry_Int_Tables_number       1
_symmetry_cell_setting            triclinic
loop_
_symmetry_equiv_pos_as_xyz
  x,y,z
_cell_length_a                    12.3361
_cell_length_b                    16.9737
_cell_length_c                    14.0699
_cell_angle_alpha                 90.0000
_cell_angle_beta                  90.0000
_cell_angle_gamma                 90.0000
loop_
_atom_site_label
_atom_site_type_symbol
_atom_site_fract_x
_atom_site_fract_y
_atom_site_fract_z
_atom_site_U_iso_or_equiv
_atom_site_adp_type
_atom_site_occupancy
C1     C     0.70154   0.02116   0.43741   0.00000  Uiso   1.00
C2     C     0.69789   0.08608   0.36255   0.00000  Uiso   1.00
C3     C     0.72309   0.07721   0.26702   0.00000  Uiso   1.00
C4     C     0.71475   0.14376   0.21011   0.00000  Uiso   1.00
C5     C     0.71407   0.23349   0.08820   0.00000  Uiso   1.00
C6     C     0.77718   0.05080   0.51532   0.00000  Uiso   1.00
C7     C     0.86902   0.01226   0.54825   0.00000  Uiso   1.00
C8     C     0.92741   0.04911   0.61995   0.00000  Uiso   1.00
C9     C     0.04978   0.08404   0.73526   0.00000  Uiso   1.00
C10    C     0.58869   0.01841   0.48152   0.00000  Uiso   1.00
C11    C     0.52205   0.95264   0.48605   0.00000  Uiso   1.00
C12    C     0.42175   0.96221   0.52931   0.00000  Uiso   1.00
C13    C     0.25146   0.94686   0.59214   0.00000  Uiso   1.00
C14    C     0.64191   0.15511   0.50622   0.00000  Uiso   1.00
C15    C     0.66551   0.15883   0.39993   0.00000  Uiso   1.00
C16    C     0.65712   0.22541   0.34315   0.00000  Uiso   1.00
C17    C     0.68230   0.21664   0.24755   0.00000  Uiso   1.00
C18    C     0.74480   0.12355   0.55270   0.00000  Uiso   1.00
C19    C     0.80306   0.16046   0.62437   0.00000  Uiso   1.00
C20    C     0.89497   0.12200   0.65739   0.00000  Uiso   1.00
C21    C     0.55630   0.09117   0.51889   0.00000  Uiso   1.00
C22    C     0.45609   0.10084   0.56217   0.00000  Uiso   1.00
C23    C     0.38931   0.03510   0.56675   0.00000  Uiso   1.00
H24    H     0.72675   0.96452   0.40832   0.00000  Uiso   1.00
H25    H     0.74816   0.02090   0.23813   0.00000  Uiso   1.00
H26    H     0.89406   0.95596   0.51932   0.00000  Uiso   1.00
H27    H     0.54714   0.89635   0.45712   0.00000  Uiso   1.00
H28    H     0.75764   0.11549   0.06593   0.00000  Uiso   1.00
H29    H     0.06527   0.97855   0.65885   0.00000  Uiso   1.00
H30    H     0.33373   0.85285   0.52769   0.00000  Uiso   1.00
H31    H     0.61670   0.21176   0.53532   0.00000  Uiso   1.00
H32    H     0.63206   0.28170   0.37209   0.00000  Uiso   1.00
H33    H     0.77797   0.21676   0.65328   0.00000  Uiso   1.00
H34    H     0.43106   0.15715   0.59108   0.00000  Uiso   1.00
H35    H     0.66342   0.32718   0.17466   0.00000  Uiso   1.00
H36    H     0.97105   0.19023   0.76759   0.00000  Uiso   1.00
H37    H     0.23951   0.06453   0.63643   0.00000  Uiso   1.00
O38    O     0.72266   0.26289   0.01063   0.00000  Uiso   1.00
O39    O     0.12624   0.08322   0.78853   0.00000  Uiso   1.00
O40    O     0.16648   0.91830   0.61645   0.00000  Uiso   1.00
N41    N     0.73334   0.15571   0.11391   0.00000  Uiso   1.00
N42    N     0.02096   0.02768   0.66825   0.00000  Uiso   1.00
N43    N     0.33704   0.91016   0.54565   0.00000  Uiso   1.00
N44    N     0.68264   0.26961   0.17242   0.00000  Uiso   1.00
N45    N     0.97026   0.14158   0.72676   0.00000  Uiso   1.00
N46    N     0.28634   0.02406   0.60416   0.00000  Uiso   1.00
C47    C     0.79846   0.97884   0.93741   0.00000  Uiso   1.00
C48    C     0.80211   0.91392   0.86255   0.00000  Uiso   1.00
C49    C     0.77691   0.92279   0.76702   0.00000  Uiso   1.00
C50    C     0.78525   0.85624   0.71011   0.00000  Uiso   1.00
C51    C     0.78593   0.76651   0.58820   0.00000  Uiso   1.00
C52    C     0.72282   0.94920   0.01532   0.00000  Uiso   1.00
C53    C     0.63098   0.98774   0.04825   0.00000  Uiso   1.00
C54    C     0.57259   0.95089   0.11995   0.00000  Uiso   1.00
C55    C     0.45022   0.91596   0.23526   0.00000  Uiso   1.00
C56    C     0.91131   0.98159   0.98152   0.00000  Uiso   1.00
C57    C     0.97795   0.04736   0.98605   0.00000  Uiso   1.00
C58    C     0.07825   0.03779   0.02931   0.00000  Uiso   1.00
C59    C     0.24854   0.05314   0.09214   0.00000  Uiso   1.00
C60    C     0.85809   0.84489   0.00622   0.00000  Uiso   1.00
C61    C     0.83449   0.84117   0.89993   0.00000  Uiso   1.00
C62    C     0.84288   0.77459   0.84315   0.00000  Uiso   1.00
C63    C     0.81770   0.78336   0.74755   0.00000  Uiso   1.00
C64    C     0.75520   0.87645   0.05270   0.00000  Uiso   1.00
C65    C     0.69694   0.83954   0.12437   0.00000  Uiso   1.00
C66    C     0.60503   0.87800   0.15739   0.00000  Uiso   1.00
C67    C     0.94370   0.90883   0.01889   0.00000  Uiso   1.00
C68    C     0.04391   0.89916   0.06217   0.00000  Uiso   1.00
C69    C     0.11069   0.96490   0.06675   0.00000  Uiso   1.00
H70    H     0.77325   0.03548   0.90832   0.00000  Uiso   1.00
H71    H     0.75184   0.97910   0.73813   0.00000  Uiso   1.00
H72    H     0.60594   0.04404   0.01932   0.00000  Uiso   1.00
H73    H     0.95286   0.10365   0.95712   0.00000  Uiso   1.00
H74    H     0.74236   0.88451   0.56593   0.00000  Uiso   1.00
H75    H     0.43473   0.02145   0.15885   0.00000  Uiso   1.00
H76    H     0.16627   0.14715   0.02769   0.00000  Uiso   1.00
H77    H     0.88330   0.78824   0.03532   0.00000  Uiso   1.00
H78    H     0.86794   0.71830   0.87209   0.00000  Uiso   1.00
H79    H     0.72203   0.78324   0.15328   0.00000  Uiso   1.00
H80    H     0.06894   0.84285   0.09108   0.00000  Uiso   1.00
H81    H     0.83658   0.67282   0.67466   0.00000  Uiso   1.00
H82    H     0.52895   0.80977   0.26759   0.00000  Uiso   1.00
H83    H     0.26049   0.93547   0.13643   0.00000  Uiso   1.00
O84    O     0.77734   0.73711   0.51063   0.00000  Uiso   1.00
O85    O     0.37376   0.91678   0.28853   0.00000  Uiso   1.00
O86    O     0.33352   0.08170   0.11645   0.00000  Uiso   1.00
N87    N     0.76666   0.84429   0.61391   0.00000  Uiso   1.00
N88    N     0.47904   0.97232   0.16825   0.00000  Uiso   1.00
N89    N     0.16296   0.08984   0.04565   0.00000  Uiso   1.00
N90    N     0.81736   0.73039   0.67242   0.00000  Uiso   1.00
N91    N     0.52974   0.85842   0.22676   0.00000  Uiso   1.00
N92    N     0.21366   0.97594   0.10416   0.00000  Uiso   1.00
C93    C     0.29846   0.52116   0.06259   0.00000  Uiso   1.00
C94    C     0.30211   0.58608   0.13745   0.00000  Uiso   1.00
C95    C     0.27691   0.57721   0.23298   0.00000  Uiso   1.00
C96    C     0.28525   0.64376   0.28989   0.00000  Uiso   1.00
C97    C     0.28593   0.73349   0.41180   0.00000  Uiso   1.00
C98    C     0.22282   0.55080   0.98468   0.00000  Uiso   1.00
C99    C     0.13098   0.51226   0.95175   0.00000  Uiso   1.00
C100   C     0.07259   0.54911   0.88005   0.00000  Uiso   1.00
C101   C     0.95022   0.58404   0.76474   0.00000  Uiso   1.00
C102   C     0.41131   0.51841   0.01848   0.00000  Uiso   1.00
C103   C     0.47795   0.45264   0.01395   0.00000  Uiso   1.00
C104   C     0.57825   0.46221   0.97069   0.00000  Uiso   1.00
C105   C     0.74854   0.44686   0.90786   0.00000  Uiso   1.00
C106   C     0.35809   0.65511   0.99378   0.00000  Uiso   1.00
C107   C     0.33449   0.65883   0.10007   0.00000  Uiso   1.00
C108   C     0.34288   0.72541   0.15685   0.00000  Uiso   1.00
C109   C     0.31770   0.71664   0.25245   0.00000  Uiso   1.00
C110   C     0.25520   0.62355   0.94730   0.00000  Uiso   1.00
C111   C     0.19694   0.66046   0.87563   0.00000  Uiso   1.00
C112   C     0.10503   0.62200   0.84261   0.00000  Uiso   1.00
C113   C     0.44370   0.59117   0.98111   0.00000  Uiso   1.00
C114   C     0.54391   0.60084   0.93783   0.00000  Uiso   1.00
C115   C     0.61069   0.53510   0.93325   0.00000  Uiso   1.00
H116   H     0.27325   0.46452   0.09168   0.00000  Uiso   1.00
H117   H     0.25184   0.52090   0.26187   0.00000  Uiso   1.00
H118   H     0.10594   0.45596   0.98068   0.00000  Uiso   1.00
H119   H     0.45286   0.39635   0.04288   0.00000  Uiso   1.00
H120   H     0.24236   0.61549   0.43407   0.00000  Uiso   1.00
H121   H     0.93473   0.47855   0.84115   0.00000  Uiso   1.00
H122   H     0.66627   0.35285   0.97231   0.00000  Uiso   1.00
H123   H     0.38330   0.71176   0.96468   0.00000  Uiso   1.00
H124   H     0.36794   0.78170   0.12791   0.00000  Uiso   1.00
H125   H     0.22203   0.71676   0.84672   0.00000  Uiso   1.00
H126   H     0.56894   0.65715   0.90892   0.00000  Uiso   1.00
H127   H     0.33658   0.82718   0.32534   0.00000  Uiso   1.00
H128   H     0.02895   0.69023   0.73241   0.00000  Uiso   1.00
H129   H     0.76049   0.56453   0.86357   0.00000  Uiso   1.00
O130   O     0.27734   0.76289   0.48937   0.00000  Uiso   1.00
O131   O     0.87376   0.58322   0.71147   0.00000  Uiso   1.00
O132   O     0.83352   0.41830   0.88355   0.00000  Uiso   1.00
N133   N     0.26666   0.65571   0.38609   0.00000  Uiso   1.00
N134   N     0.97904   0.52768   0.83175   0.00000  Uiso   1.00
N135   N     0.66296   0.41016   0.95435   0.00000  Uiso   1.00
N136   N     0.31736   0.76961   0.32758   0.00000  Uiso   1.00
N137   N     0.02974   0.64158   0.77324   0.00000  Uiso   1.00
N138   N     0.71366   0.52406   0.89584   0.00000  Uiso   1.00
C139   C     0.20154   0.47884   0.56259   0.00000  Uiso   1.00
C140   C     0.19789   0.41392   0.63745   0.00000  Uiso   1.00
C141   C     0.22309   0.42279   0.73298   0.00000  Uiso   1.00
C142   C     0.21475   0.35624   0.78989   0.00000  Uiso   1.00
C143   C     0.21407   0.26651   0.91180   0.00000  Uiso   1.00
C144   C     0.27718   0.44920   0.48468   0.00000  Uiso   1.00
C145   C     0.36902   0.48774   0.45175   0.00000  Uiso   1.00
C146   C     0.42741   0.45089   0.38005   0.00000  Uiso   1.00
C147   C     0.54978   0.41596   0.26474   0.00000  Uiso   1.00
C148   C     0.08869   0.48159   0.51848   0.00000  Uiso   1.00
C149   C     0.02205   0.54736   0.51395   0.00000  Uiso   1.00
C150   C     0.92175   0.53779   0.47069   0.00000  Uiso   1.00
C151   C     0.75146   0.55314   0.40786   0.00000  Uiso   1.00
C152   C     0.14191   0.34489   0.49378   0.00000  Uiso   1.00
C153   C     0.16551   0.34117   0.60007   0.00000  Uiso   1.00
C154   C     0.15712   0.27459   0.65685   0.00000  Uiso   1.00
C155   C     0.18230   0.28336   0.75245   0.00000  Uiso   1.00
C156   C     0.24480   0.37645   0.44730   0.00000  Uiso   1.00
C157   C     0.30306   0.33954   0.37563   0.00000  Uiso   1.00
C158   C     0.39497   0.37800   0.34261   0.00000  Uiso   1.00
C159   C     0.05630   0.40883   0.48111   0.00000  Uiso   1.00
C160   C     0.95609   0.39916   0.43783   0.00000  Uiso   1.00
C161   C     0.88931   0.46490   0.43325   0.00000  Uiso   1.00
H162   H     0.22675   0.53548   0.59168   0.00000  Uiso   1.00
H163   H     0.24816   0.47910   0.76187   0.00000  Uiso   1.00
H164   H     0.39406   0.54404   0.48068   0.00000  Uiso   1.00
H165   H     0.04714   0.60365   0.54288   0.00000  Uiso   1.00
H166   H     0.25764   0.38451   0.93407   0.00000  Uiso   1.00
H167   H     0.56527   0.52145   0.34115   0.00000  Uiso   1.00
H168   H     0.83373   0.64715   0.47231   0.00000  Uiso   1.00
H169   H     0.11670   0.28824   0.46468   0.00000  Uiso   1.00
H170   H     0.13206   0.21830   0.62791   0.00000  Uiso   1.00
H171   H     0.27797   0.28324   0.34672   0.00000  Uiso   1.00
H172   H     0.93106   0.34285   0.40892   0.00000  Uiso   1.00
H173   H     0.16342   0.17282   0.82534   0.00000  Uiso   1.00
H174   H     0.47105   0.30977   0.23241   0.00000  Uiso   1.00
H175   H     0.73951   0.43547   0.36357   0.00000  Uiso   1.00
O176   O     0.22266   0.23711   0.98937   0.00000  Uiso   1.00
O177   O     0.62624   0.41678   0.21147   0.00000  Uiso   1.00
O178   O     0.66648   0.58170   0.38355   0.00000  Uiso   1.00
N179   N     0.23334   0.34429   0.88609   0.00000  Uiso   1.00
N180   N     0.52096   0.47232   0.33175   0.00000  Uiso   1.00
N181   N     0.83704   0.58984   0.45435   0.00000  Uiso   1.00
N182   N     0.18264   0.23039   0.82758   0.00000  Uiso   1.00
N183   N     0.47026   0.35842   0.27324   0.00000  Uiso   1.00
N184   N     0.78634   0.47594   0.39584   0.00000  Uiso   1.00
