data_job_02041
_audit_creation_date              2018-12-19
_audit_creation_method            'Materials Studio'
_symmetry_space_group_name_H-M    'P1'
_symmetry_Int_Tables_number       1
_symmetry_cell_setting            triclinic
loop_
_symmetry_equiv_pos_as_xyz
  x,y,z
_cell_length_a                    9.6412
_cell_length_b                    24.9791
_cell_length_c                    10.8809
_cell_angle_alpha                 90.0000
_cell_angle_beta                  82.2322
_cell_angle_gamma                 90.0000
loop_
_atom_site_label
_atom_site_type_symbol
_atom_site_fract_x
_atom_site_fract_y
_atom_site_fract_z
_atom_site_U_iso_or_equiv
_atom_site_adp_type
_atom_site_occupancy
C1     C     0.21974   0.68319   0.38609   0.00000  Uiso   1.00
C2     C     0.13737   0.63365   0.35751   0.00000  Uiso   1.00
C3     C     0.13711   0.61086   0.24123   0.00000  Uiso   1.00
C4     C     0.05486   0.56561   0.23447   0.00000  Uiso   1.00
C5     C     0.93905   0.49196   0.17401   0.00000  Uiso   1.00
C6     C     0.30960   0.66607   0.48429   0.00000  Uiso   1.00
C7     C     0.45416   0.67055   0.47460   0.00000  Uiso   1.00
C8     C     0.51688   0.65260   0.57457   0.00000  Uiso   1.00
C9     C     0.66846   0.62933   0.71097   0.00000  Uiso   1.00
C10    C     0.11245   0.72256   0.44995   0.00000  Uiso   1.00
C11    C     0.09126   0.77453   0.41141   0.00000  Uiso   1.00
C12    C     0.98801   0.80414   0.48248   0.00000  Uiso   1.00
C13    C     0.83348   0.86856   0.56556   0.00000  Uiso   1.00
C14    C     0.07411   0.64337   0.58086   0.00000  Uiso   1.00
C15    C     0.05828   0.61202   0.46331   0.00000  Uiso   1.00
C16    C     0.97599   0.56680   0.45672   0.00000  Uiso   1.00
C17    C     0.97561   0.54394   0.34045   0.00000  Uiso   1.00
C18    C     0.23051   0.64445   0.59008   0.00000  Uiso   1.00
C19    C     0.29304   0.62649   0.69009   0.00000  Uiso   1.00
C20    C     0.43764   0.63093   0.68055   0.00000  Uiso   1.00
C21    C     0.03335   0.70093   0.55574   0.00000  Uiso   1.00
C22    C     0.93013   0.73046   0.62689   0.00000  Uiso   1.00
C23    C     0.90878   0.78247   0.58847   0.00000  Uiso   1.00
H24    H     0.28133   0.70003   0.30373   0.00000  Uiso   1.00
H25    H     0.19835   0.62760   0.15939   0.00000  Uiso   1.00
H26    H     0.51534   0.68729   0.39273   0.00000  Uiso   1.00
H27    H     0.15249   0.79125   0.32954   0.00000  Uiso   1.00
H28    H     0.07151   0.53776   0.04601   0.00000  Uiso   1.00
H29    H     0.73989   0.66363   0.53804   0.00000  Uiso   1.00
H30    H     0.97476   0.88285   0.40480   0.00000  Uiso   1.00
H31    H     0.01253   0.62653   0.66323   0.00000  Uiso   1.00
H32    H     0.91479   0.55007   0.53860   0.00000  Uiso   1.00
H33    H     0.23179   0.60976   0.77194   0.00000  Uiso   1.00
H34    H     0.86894   0.71371   0.70875   0.00000  Uiso   1.00
H35    H     0.84137   0.47482   0.35380   0.00000  Uiso   1.00
H36    H     0.50976   0.60070   0.84583   0.00000  Uiso   1.00
H37    H     0.74462   0.81991   0.71258   0.00000  Uiso   1.00
O38    O     0.89704   0.45731   0.11144   0.00000  Uiso   1.00
O39    O     0.77393   0.62246   0.75697   0.00000  Uiso   1.00
O40    O     0.77009   0.91006   0.58215   0.00000  Uiso   1.00
N41    N     0.03074   0.53344   0.13555   0.00000  Uiso   1.00
N42    N     0.65564   0.65112   0.59556   0.00000  Uiso   1.00
N43    N     0.94033   0.85608   0.47100   0.00000  Uiso   1.00
N44    N     0.90690   0.49958   0.30116   0.00000  Uiso   1.00
N45    N     0.53180   0.61726   0.76118   0.00000  Uiso   1.00
N46    N     0.81649   0.82221   0.63662   0.00000  Uiso   1.00
C47    C     0.78026   0.18319   0.11391   0.00000  Uiso   1.00
C48    C     0.86263   0.13365   0.14249   0.00000  Uiso   1.00
C49    C     0.86289   0.11086   0.25877   0.00000  Uiso   1.00
C50    C     0.94514   0.06561   0.26553   0.00000  Uiso   1.00
C51    C     0.06095   0.99196   0.32599   0.00000  Uiso   1.00
C52    C     0.69040   0.16607   0.01571   0.00000  Uiso   1.00
C53    C     0.54584   0.17055   0.02540   0.00000  Uiso   1.00
C54    C     0.48312   0.15260   0.92543   0.00000  Uiso   1.00
C55    C     0.33154   0.12933   0.78903   0.00000  Uiso   1.00
C56    C     0.88755   0.22256   0.05005   0.00000  Uiso   1.00
C57    C     0.90874   0.27453   0.08859   0.00000  Uiso   1.00
C58    C     0.01199   0.30414   0.01752   0.00000  Uiso   1.00
C59    C     0.16652   0.36856   0.93444   0.00000  Uiso   1.00
C60    C     0.92589   0.14337   0.91914   0.00000  Uiso   1.00
C61    C     0.94172   0.11202   0.03669   0.00000  Uiso   1.00
C62    C     0.02401   0.06680   0.04328   0.00000  Uiso   1.00
C63    C     0.02439   0.04394   0.15955   0.00000  Uiso   1.00
C64    C     0.76949   0.14445   0.90992   0.00000  Uiso   1.00
C65    C     0.70696   0.12649   0.80991   0.00000  Uiso   1.00
C66    C     0.56236   0.13093   0.81945   0.00000  Uiso   1.00
C67    C     0.96665   0.20093   0.94426   0.00000  Uiso   1.00
C68    C     0.06987   0.23046   0.87311   0.00000  Uiso   1.00
C69    C     0.09122   0.28247   0.91153   0.00000  Uiso   1.00
H70    H     0.71867   0.20003   0.19627   0.00000  Uiso   1.00
H71    H     0.80165   0.12760   0.34061   0.00000  Uiso   1.00
H72    H     0.48466   0.18729   0.10727   0.00000  Uiso   1.00
H73    H     0.84751   0.29125   0.17046   0.00000  Uiso   1.00
H74    H     0.92849   0.03776   0.45399   0.00000  Uiso   1.00
H75    H     0.26011   0.16363   0.96196   0.00000  Uiso   1.00
H76    H     0.02524   0.38285   0.09520   0.00000  Uiso   1.00
H77    H     0.98747   0.12653   0.83677   0.00000  Uiso   1.00
H78    H     0.08521   0.05007   0.96140   0.00000  Uiso   1.00
H79    H     0.76821   0.10976   0.72806   0.00000  Uiso   1.00
H80    H     0.13106   0.21371   0.79125   0.00000  Uiso   1.00
H81    H     0.15863   0.97482   0.14620   0.00000  Uiso   1.00
H82    H     0.49024   0.10070   0.65417   0.00000  Uiso   1.00
H83    H     0.25538   0.31991   0.78742   0.00000  Uiso   1.00
O84    O     0.10296   0.95731   0.38856   0.00000  Uiso   1.00
O85    O     0.22607   0.12246   0.74303   0.00000  Uiso   1.00
O86    O     0.22991   0.41006   0.91785   0.00000  Uiso   1.00
N87    N     0.96926   0.03344   0.36445   0.00000  Uiso   1.00
N88    N     0.34436   0.15112   0.90444   0.00000  Uiso   1.00
N89    N     0.05967   0.35608   0.02900   0.00000  Uiso   1.00
N90    N     0.09310   0.99958   0.19884   0.00000  Uiso   1.00
N91    N     0.46820   0.11726   0.73882   0.00000  Uiso   1.00
N92    N     0.18351   0.32221   0.86338   0.00000  Uiso   1.00
C93    C     0.78026   0.31681   0.61391   0.00000  Uiso   1.00
C94    C     0.86263   0.36635   0.64249   0.00000  Uiso   1.00
C95    C     0.86289   0.38914   0.75877   0.00000  Uiso   1.00
C96    C     0.94514   0.43439   0.76553   0.00000  Uiso   1.00
C97    C     0.06095   0.50804   0.82599   0.00000  Uiso   1.00
C98    C     0.69040   0.33393   0.51571   0.00000  Uiso   1.00
C99    C     0.54584   0.32945   0.52540   0.00000  Uiso   1.00
C100   C     0.48312   0.34740   0.42543   0.00000  Uiso   1.00
C101   C     0.33154   0.37067   0.28903   0.00000  Uiso   1.00
C102   C     0.88755   0.27744   0.55005   0.00000  Uiso   1.00
C103   C     0.90874   0.22547   0.58859   0.00000  Uiso   1.00
C104   C     0.01199   0.19586   0.51752   0.00000  Uiso   1.00
C105   C     0.16652   0.13144   0.43444   0.00000  Uiso   1.00
C106   C     0.92589   0.35663   0.41914   0.00000  Uiso   1.00
C107   C     0.94172   0.38798   0.53669   0.00000  Uiso   1.00
C108   C     0.02401   0.43320   0.54328   0.00000  Uiso   1.00
C109   C     0.02439   0.45606   0.65955   0.00000  Uiso   1.00
C110   C     0.76949   0.35555   0.40992   0.00000  Uiso   1.00
C111   C     0.70696   0.37351   0.30991   0.00000  Uiso   1.00
C112   C     0.56236   0.36907   0.31945   0.00000  Uiso   1.00
C113   C     0.96665   0.29907   0.44426   0.00000  Uiso   1.00
C114   C     0.06987   0.26954   0.37311   0.00000  Uiso   1.00
C115   C     0.09122   0.21753   0.41153   0.00000  Uiso   1.00
H116   H     0.71867   0.29997   0.69627   0.00000  Uiso   1.00
H117   H     0.80165   0.37240   0.84061   0.00000  Uiso   1.00
H118   H     0.48466   0.31271   0.60727   0.00000  Uiso   1.00
H119   H     0.84751   0.20875   0.67046   0.00000  Uiso   1.00
H120   H     0.92849   0.46224   0.95399   0.00000  Uiso   1.00
H121   H     0.26011   0.33637   0.46196   0.00000  Uiso   1.00
H122   H     0.02524   0.11715   0.59520   0.00000  Uiso   1.00
H123   H     0.98747   0.37347   0.33677   0.00000  Uiso   1.00
H124   H     0.08521   0.44993   0.46140   0.00000  Uiso   1.00
H125   H     0.76821   0.39024   0.22806   0.00000  Uiso   1.00
H126   H     0.13106   0.28629   0.29125   0.00000  Uiso   1.00
H127   H     0.15863   0.52518   0.64620   0.00000  Uiso   1.00
H128   H     0.49024   0.39930   0.15417   0.00000  Uiso   1.00
H129   H     0.25538   0.18009   0.28742   0.00000  Uiso   1.00
O130   O     0.10296   0.54269   0.88856   0.00000  Uiso   1.00
O131   O     0.22607   0.37754   0.24303   0.00000  Uiso   1.00
O132   O     0.22991   0.08994   0.41785   0.00000  Uiso   1.00
N133   N     0.96926   0.46656   0.86445   0.00000  Uiso   1.00
N134   N     0.34436   0.34888   0.40444   0.00000  Uiso   1.00
N135   N     0.05967   0.14392   0.52900   0.00000  Uiso   1.00
N136   N     0.09310   0.50042   0.69884   0.00000  Uiso   1.00
N137   N     0.46820   0.38274   0.23882   0.00000  Uiso   1.00
N138   N     0.18351   0.17779   0.36338   0.00000  Uiso   1.00
C139   C     0.21974   0.81681   0.88609   0.00000  Uiso   1.00
C140   C     0.13737   0.86635   0.85751   0.00000  Uiso   1.00
C141   C     0.13711   0.88914   0.74123   0.00000  Uiso   1.00
C142   C     0.05486   0.93439   0.73447   0.00000  Uiso   1.00
C143   C     0.93905   0.00804   0.67401   0.00000  Uiso   1.00
C144   C     0.30960   0.83393   0.98429   0.00000  Uiso   1.00
C145   C     0.45416   0.82945   0.97460   0.00000  Uiso   1.00
C146   C     0.51688   0.84740   0.07457   0.00000  Uiso   1.00
C147   C     0.66846   0.87067   0.21097   0.00000  Uiso   1.00
C148   C     0.11245   0.77744   0.94995   0.00000  Uiso   1.00
C149   C     0.09126   0.72547   0.91141   0.00000  Uiso   1.00
C150   C     0.98801   0.69586   0.98248   0.00000  Uiso   1.00
C151   C     0.83348   0.63144   0.06556   0.00000  Uiso   1.00
C152   C     0.07411   0.85663   0.08086   0.00000  Uiso   1.00
C153   C     0.05828   0.88798   0.96331   0.00000  Uiso   1.00
C154   C     0.97599   0.93320   0.95672   0.00000  Uiso   1.00
C155   C     0.97561   0.95606   0.84045   0.00000  Uiso   1.00
C156   C     0.23051   0.85555   0.09008   0.00000  Uiso   1.00
C157   C     0.29304   0.87351   0.19009   0.00000  Uiso   1.00
C158   C     0.43764   0.86907   0.18055   0.00000  Uiso   1.00
C159   C     0.03335   0.79907   0.05574   0.00000  Uiso   1.00
C160   C     0.93013   0.76954   0.12689   0.00000  Uiso   1.00
C161   C     0.90878   0.71753   0.08847   0.00000  Uiso   1.00
H162   H     0.28133   0.79997   0.80373   0.00000  Uiso   1.00
H163   H     0.19835   0.87240   0.65939   0.00000  Uiso   1.00
H164   H     0.51534   0.81271   0.89273   0.00000  Uiso   1.00
H165   H     0.15249   0.70875   0.82954   0.00000  Uiso   1.00
H166   H     0.07151   0.96224   0.54601   0.00000  Uiso   1.00
H167   H     0.73989   0.83637   0.03804   0.00000  Uiso   1.00
H168   H     0.97476   0.61715   0.90480   0.00000  Uiso   1.00
H169   H     0.01253   0.87347   0.16323   0.00000  Uiso   1.00
H170   H     0.91479   0.94993   0.03860   0.00000  Uiso   1.00
H171   H     0.23179   0.89024   0.27194   0.00000  Uiso   1.00
H172   H     0.86894   0.78629   0.20875   0.00000  Uiso   1.00
H173   H     0.84137   0.02518   0.85380   0.00000  Uiso   1.00
H174   H     0.50976   0.89930   0.34583   0.00000  Uiso   1.00
H175   H     0.74462   0.68009   0.21258   0.00000  Uiso   1.00
O176   O     0.89704   0.04269   0.61144   0.00000  Uiso   1.00
O177   O     0.77393   0.87754   0.25697   0.00000  Uiso   1.00
O178   O     0.77009   0.58994   0.08215   0.00000  Uiso   1.00
N179   N     0.03074   0.96656   0.63555   0.00000  Uiso   1.00
N180   N     0.65564   0.84888   0.09556   0.00000  Uiso   1.00
N181   N     0.94033   0.64392   0.97100   0.00000  Uiso   1.00
N182   N     0.90690   0.00042   0.80116   0.00000  Uiso   1.00
N183   N     0.53180   0.88274   0.26118   0.00000  Uiso   1.00
N184   N     0.81649   0.67779   0.13662   0.00000  Uiso   1.00
