data_job_03739
_audit_creation_date              2018-12-19
_audit_creation_method            'Materials Studio'
_symmetry_space_group_name_H-M    'P1'
_symmetry_Int_Tables_number       1
_symmetry_cell_setting            triclinic
loop_
_symmetry_equiv_pos_as_xyz
  x,y,z
_cell_length_a                    9.7254
_cell_length_b                    12.7240
_cell_length_c                    15.3794
_cell_angle_alpha                 86.6798
_cell_angle_beta                  79.9030
_cell_angle_gamma                 67.5715
loop_
_atom_site_label
_atom_site_type_symbol
_atom_site_fract_x
_atom_site_fract_y
_atom_site_fract_z
_atom_site_U_iso_or_equiv
_atom_site_adp_type
_atom_site_occupancy
C1     C     0.10429   0.29790   0.18614   0.00000  Uiso   1.00
C2     C     0.18440   0.18892   0.23381   0.00000  Uiso   1.00
C3     C     0.25459   0.18164   0.30635   0.00000  Uiso   1.00
C4     C     0.32152   0.07407   0.34038   0.00000  Uiso   1.00
C5     C     0.44647   0.91955   0.42003   0.00000  Uiso   1.00
C6     C     0.18010   0.27915   0.08966   0.00000  Uiso   1.00
C7     C     0.24664   0.34775   0.04100   0.00000  Uiso   1.00
C8     C     0.30994   0.31614   0.95369   0.00000  Uiso   1.00
C9     C     0.42810   0.30175   0.80953   0.00000  Uiso   1.00
C10    C     0.94433   0.30360   0.18797   0.00000  Uiso   1.00
C11    C     0.81262   0.39277   0.22195   0.00000  Uiso   1.00
C12    C     0.67741   0.38176   0.21739   0.00000  Uiso   1.00
C13    C     0.42950   0.40534   0.22587   0.00000  Uiso   1.00
C14    C     0.09836   0.11982   0.11758   0.00000  Uiso   1.00
C15    C     0.18118   0.09219   0.19657   0.00000  Uiso   1.00
C16    C     0.24802   0.98461   0.23050   0.00000  Uiso   1.00
C17    C     0.31829   0.97717   0.30308   0.00000  Uiso   1.00
C18    C     0.17688   0.18242   0.05242   0.00000  Uiso   1.00
C19    C     0.24008   0.15071   0.96515   0.00000  Uiso   1.00
C20    C     0.30671   0.21924   0.91638   0.00000  Uiso   1.00
C21    C     0.94110   0.20687   0.15073   0.00000  Uiso   1.00
C22    C     0.80606   0.19573   0.14611   0.00000  Uiso   1.00
C23    C     0.67418   0.28486   0.18008   0.00000  Uiso   1.00
H24    H     0.10681   0.37321   0.21513   0.00000  Uiso   1.00
H25    H     0.25707   0.25651   0.33514   0.00000  Uiso   1.00
H26    H     0.24911   0.42260   0.06984   0.00000  Uiso   1.00
H27    H     0.81516   0.46761   0.25076   0.00000  Uiso   1.00
H28    H     0.42229   0.08447   0.45176   0.00000  Uiso   1.00
H29    H     0.40546   0.43469   0.89234   0.00000  Uiso   1.00
H30    H     0.49040   0.52961   0.27386   0.00000  Uiso   1.00
H31    H     0.09585   0.04451   0.08859   0.00000  Uiso   1.00
H32    H     0.24550   0.90977   0.20167   0.00000  Uiso   1.00
H33    H     0.23755   0.07586   0.93636   0.00000  Uiso   1.00
H34    H     0.80361   0.12087   0.11729   0.00000  Uiso   1.00
H35    H     0.41291   0.80303   0.34343   0.00000  Uiso   1.00
H36    H     0.39608   0.15326   0.78400   0.00000  Uiso   1.00
H37    H     0.48102   0.24818   0.16552   0.00000  Uiso   1.00
O38    O     0.51629   0.86104   0.47424   0.00000  Uiso   1.00
O39    O     0.49419   0.32054   0.74030   0.00000  Uiso   1.00
O40    O     0.29365   0.44506   0.24085   0.00000  Uiso   1.00
N41    N     0.39952   0.03673   0.41076   0.00000  Uiso   1.00
N42    N     0.38381   0.36416   0.88774   0.00000  Uiso   1.00
N43    N     0.52830   0.45291   0.24440   0.00000  Uiso   1.00
N44    N     0.39447   0.88529   0.35246   0.00000  Uiso   1.00
N45    N     0.37876   0.21272   0.82944   0.00000  Uiso   1.00
N46    N     0.52325   0.30147   0.18611   0.00000  Uiso   1.00
C47    C     0.89571   0.70210   0.81386   0.00000  Uiso   1.00
C48    C     0.81560   0.81108   0.76619   0.00000  Uiso   1.00
C49    C     0.74541   0.81836   0.69365   0.00000  Uiso   1.00
C50    C     0.67848   0.92593   0.65962   0.00000  Uiso   1.00
C51    C     0.55353   0.08045   0.57997   0.00000  Uiso   1.00
C52    C     0.81990   0.72085   0.91034   0.00000  Uiso   1.00
C53    C     0.75336   0.65225   0.95900   0.00000  Uiso   1.00
C54    C     0.69006   0.68386   0.04631   0.00000  Uiso   1.00
C55    C     0.57190   0.69825   0.19047   0.00000  Uiso   1.00
C56    C     0.05567   0.69640   0.81203   0.00000  Uiso   1.00
C57    C     0.18738   0.60723   0.77805   0.00000  Uiso   1.00
C58    C     0.32259   0.61824   0.78261   0.00000  Uiso   1.00
C59    C     0.57050   0.59466   0.77413   0.00000  Uiso   1.00
C60    C     0.90164   0.88018   0.88242   0.00000  Uiso   1.00
C61    C     0.81882   0.90781   0.80343   0.00000  Uiso   1.00
C62    C     0.75198   0.01539   0.76950   0.00000  Uiso   1.00
C63    C     0.68171   0.02283   0.69692   0.00000  Uiso   1.00
C64    C     0.82312   0.81758   0.94758   0.00000  Uiso   1.00
C65    C     0.75992   0.84929   0.03485   0.00000  Uiso   1.00
C66    C     0.69329   0.78076   0.08362   0.00000  Uiso   1.00
C67    C     0.05890   0.79313   0.84927   0.00000  Uiso   1.00
C68    C     0.19394   0.80427   0.85389   0.00000  Uiso   1.00
C69    C     0.32582   0.71514   0.81992   0.00000  Uiso   1.00
H70    H     0.89319   0.62679   0.78487   0.00000  Uiso   1.00
H71    H     0.74293   0.74349   0.66486   0.00000  Uiso   1.00
H72    H     0.75089   0.57740   0.93016   0.00000  Uiso   1.00
H73    H     0.18484   0.53239   0.74924   0.00000  Uiso   1.00
H74    H     0.57771   0.91553   0.54824   0.00000  Uiso   1.00
H75    H     0.59454   0.56531   0.10766   0.00000  Uiso   1.00
H76    H     0.50960   0.47039   0.72614   0.00000  Uiso   1.00
H77    H     0.90415   0.95549   0.91141   0.00000  Uiso   1.00
H78    H     0.75450   0.09023   0.79833   0.00000  Uiso   1.00
H79    H     0.76245   0.92414   0.06364   0.00000  Uiso   1.00
H80    H     0.19639   0.87913   0.88271   0.00000  Uiso   1.00
H81    H     0.58709   0.19697   0.65657   0.00000  Uiso   1.00
H82    H     0.60392   0.84674   0.21600   0.00000  Uiso   1.00
H83    H     0.51898   0.75182   0.83448   0.00000  Uiso   1.00
O84    O     0.48371   0.13896   0.52576   0.00000  Uiso   1.00
O85    O     0.50581   0.67946   0.25970   0.00000  Uiso   1.00
O86    O     0.70635   0.55494   0.75915   0.00000  Uiso   1.00
N87    N     0.60048   0.96327   0.58924   0.00000  Uiso   1.00
N88    N     0.61619   0.63584   0.11226   0.00000  Uiso   1.00
N89    N     0.47170   0.54709   0.75560   0.00000  Uiso   1.00
N90    N     0.60553   0.11471   0.64754   0.00000  Uiso   1.00
N91    N     0.62124   0.78728   0.17056   0.00000  Uiso   1.00
N92    N     0.47675   0.69853   0.81389   0.00000  Uiso   1.00
