data_job_03323
_audit_creation_date              2018-12-19
_audit_creation_method            'Materials Studio'
_symmetry_space_group_name_H-M    'P1'
_symmetry_Int_Tables_number       1
_symmetry_cell_setting            triclinic
loop_
_symmetry_equiv_pos_as_xyz
  x,y,z
_cell_length_a                    24.1607
_cell_length_b                    14.1108
_cell_length_c                    14.2909
_cell_angle_alpha                 90.0000
_cell_angle_beta                  115.8450
_cell_angle_gamma                 90.0000
loop_
_atom_site_label
_atom_site_type_symbol
_atom_site_fract_x
_atom_site_fract_y
_atom_site_fract_z
_atom_site_U_iso_or_equiv
_atom_site_adp_type
_atom_site_occupancy
C1     C     0.66565   0.59673   0.63957   0.00000  Uiso   1.00
C2     C     0.66923   0.63452   0.74203   0.00000  Uiso   1.00
C3     C     0.64680   0.72127   0.75597   0.00000  Uiso   1.00
C4     C     0.65459   0.74278   0.85578   0.00000  Uiso   1.00
C5     C     0.65574   0.81107   0.00229   0.00000  Uiso   1.00
C6     C     0.73164   0.57476   0.65934   0.00000  Uiso   1.00
C7     C     0.76168   0.61125   0.60373   0.00000  Uiso   1.00
C8     C     0.82201   0.58245   0.63391   0.00000  Uiso   1.00
C9     C     0.92003   0.55790   0.65198   0.00000  Uiso   1.00
C10    C     0.63290   0.50139   0.62183   0.00000  Uiso   1.00
C11    C     0.57993   0.47618   0.53467   0.00000  Uiso   1.00
C12    C     0.55713   0.38560   0.53326   0.00000  Uiso   1.00
C13    C     0.50186   0.24714   0.49308   0.00000  Uiso   1.00
C14    C     0.71938   0.48068   0.79202   0.00000  Uiso   1.00
C15    C     0.69841   0.57148   0.82484   0.00000  Uiso   1.00
C16    C     0.70624   0.59287   0.92465   0.00000  Uiso   1.00
C17    C     0.68382   0.67963   0.93873   0.00000  Uiso   1.00
C18    C     0.76082   0.51173   0.74214   0.00000  Uiso   1.00
C19    C     0.82112   0.48285   0.77240   0.00000  Uiso   1.00
C20    C     0.85124   0.51930   0.71686   0.00000  Uiso   1.00
C21    C     0.66208   0.43836   0.70463   0.00000  Uiso   1.00
C22    C     0.63937   0.34779   0.70335   0.00000  Uiso   1.00
C23    C     0.58637   0.32245   0.61621   0.00000  Uiso   1.00
H24    H     0.64293   0.64581   0.57510   0.00000  Uiso   1.00
H25    H     0.62422   0.77004   0.69187   0.00000  Uiso   1.00
H26    H     0.73908   0.66002   0.53965   0.00000  Uiso   1.00
H27    H     0.55736   0.52498   0.47061   0.00000  Uiso   1.00
H28    H     0.61637   0.87998   0.85786   0.00000  Uiso   1.00
H29    H     0.85855   0.64800   0.53686   0.00000  Uiso   1.00
H30    H     0.47535   0.36323   0.39126   0.00000  Uiso   1.00
H31    H     0.74210   0.43160   0.85649   0.00000  Uiso   1.00
H32    H     0.72883   0.54407   0.98871   0.00000  Uiso   1.00
H33    H     0.84369   0.43407   0.83648   0.00000  Uiso   1.00
H34    H     0.66197   0.29903   0.76744   0.00000  Uiso   1.00
H35    H     0.70127   0.69658   0.09878   0.00000  Uiso   1.00
H36    H     0.94345   0.46460   0.77778   0.00000  Uiso   1.00
H37    H     0.56026   0.17983   0.63219   0.00000  Uiso   1.00
O38    O     0.64832   0.86615   0.06023   0.00000  Uiso   1.00
O39    O     0.96604   0.56178   0.63907   0.00000  Uiso   1.00
O40    O     0.46330   0.18818   0.44806   0.00000  Uiso   1.00
N41    N     0.63816   0.82137   0.89641   0.00000  Uiso   1.00
N42    N     0.86459   0.60449   0.59631   0.00000  Uiso   1.00
N43    N     0.50634   0.33825   0.46018   0.00000  Uiso   1.00
N44    N     0.68384   0.72269   0.02605   0.00000  Uiso   1.00
N45    N     0.91027   0.50581   0.72595   0.00000  Uiso   1.00
N46    N     0.55203   0.23957   0.58981   0.00000  Uiso   1.00
C47    C     0.16565   0.09673   0.63957   0.00000  Uiso   1.00
C48    C     0.16923   0.13452   0.74203   0.00000  Uiso   1.00
C49    C     0.14680   0.22127   0.75597   0.00000  Uiso   1.00
C50    C     0.15459   0.24278   0.85578   0.00000  Uiso   1.00
C51    C     0.15574   0.31107   0.00229   0.00000  Uiso   1.00
C52    C     0.23164   0.07476   0.65934   0.00000  Uiso   1.00
C53    C     0.26168   0.11125   0.60373   0.00000  Uiso   1.00
C54    C     0.32201   0.08245   0.63391   0.00000  Uiso   1.00
C55    C     0.42003   0.05790   0.65198   0.00000  Uiso   1.00
C56    C     0.13290   0.00139   0.62183   0.00000  Uiso   1.00
C57    C     0.07993   0.97618   0.53467   0.00000  Uiso   1.00
C58    C     0.05713   0.88560   0.53326   0.00000  Uiso   1.00
C59    C     0.00186   0.74714   0.49308   0.00000  Uiso   1.00
C60    C     0.21938   0.98068   0.79202   0.00000  Uiso   1.00
C61    C     0.19841   0.07148   0.82484   0.00000  Uiso   1.00
C62    C     0.20624   0.09287   0.92465   0.00000  Uiso   1.00
C63    C     0.18382   0.17963   0.93873   0.00000  Uiso   1.00
C64    C     0.26082   0.01173   0.74214   0.00000  Uiso   1.00
C65    C     0.32112   0.98285   0.77240   0.00000  Uiso   1.00
C66    C     0.35124   0.01930   0.71686   0.00000  Uiso   1.00
C67    C     0.16208   0.93836   0.70463   0.00000  Uiso   1.00
C68    C     0.13937   0.84779   0.70335   0.00000  Uiso   1.00
C69    C     0.08637   0.82245   0.61621   0.00000  Uiso   1.00
H70    H     0.14293   0.14581   0.57510   0.00000  Uiso   1.00
H71    H     0.12422   0.27004   0.69187   0.00000  Uiso   1.00
H72    H     0.23908   0.16002   0.53965   0.00000  Uiso   1.00
H73    H     0.05736   0.02498   0.47061   0.00000  Uiso   1.00
H74    H     0.11637   0.37998   0.85786   0.00000  Uiso   1.00
H75    H     0.35855   0.14800   0.53686   0.00000  Uiso   1.00
H76    H     0.97535   0.86323   0.39126   0.00000  Uiso   1.00
H77    H     0.24210   0.93160   0.85649   0.00000  Uiso   1.00
H78    H     0.22883   0.04407   0.98871   0.00000  Uiso   1.00
H79    H     0.34369   0.93407   0.83648   0.00000  Uiso   1.00
H80    H     0.16197   0.79903   0.76744   0.00000  Uiso   1.00
H81    H     0.20127   0.19658   0.09878   0.00000  Uiso   1.00
H82    H     0.44345   0.96460   0.77778   0.00000  Uiso   1.00
H83    H     0.06026   0.67983   0.63219   0.00000  Uiso   1.00
O84    O     0.14832   0.36615   0.06023   0.00000  Uiso   1.00
O85    O     0.46604   0.06178   0.63907   0.00000  Uiso   1.00
O86    O     0.96330   0.68818   0.44806   0.00000  Uiso   1.00
N87    N     0.13816   0.32137   0.89641   0.00000  Uiso   1.00
N88    N     0.36459   0.10449   0.59631   0.00000  Uiso   1.00
N89    N     0.00634   0.83825   0.46018   0.00000  Uiso   1.00
N90    N     0.18384   0.22269   0.02605   0.00000  Uiso   1.00
N91    N     0.41027   0.00581   0.72595   0.00000  Uiso   1.00
N92    N     0.05203   0.73957   0.58981   0.00000  Uiso   1.00
C93    C     0.33435   0.59673   0.86043   0.00000  Uiso   1.00
C94    C     0.33077   0.63452   0.75797   0.00000  Uiso   1.00
C95    C     0.35320   0.72127   0.74403   0.00000  Uiso   1.00
C96    C     0.34541   0.74278   0.64422   0.00000  Uiso   1.00
C97    C     0.34426   0.81107   0.49771   0.00000  Uiso   1.00
C98    C     0.26836   0.57476   0.84066   0.00000  Uiso   1.00
C99    C     0.23832   0.61125   0.89627   0.00000  Uiso   1.00
C100   C     0.17799   0.58245   0.86609   0.00000  Uiso   1.00
C101   C     0.07997   0.55790   0.84802   0.00000  Uiso   1.00
C102   C     0.36710   0.50139   0.87817   0.00000  Uiso   1.00
C103   C     0.42007   0.47618   0.96533   0.00000  Uiso   1.00
C104   C     0.44287   0.38560   0.96674   0.00000  Uiso   1.00
C105   C     0.49814   0.24714   0.00692   0.00000  Uiso   1.00
C106   C     0.28062   0.48068   0.70798   0.00000  Uiso   1.00
C107   C     0.30159   0.57148   0.67516   0.00000  Uiso   1.00
C108   C     0.29376   0.59287   0.57535   0.00000  Uiso   1.00
C109   C     0.31618   0.67963   0.56127   0.00000  Uiso   1.00
C110   C     0.23918   0.51173   0.75786   0.00000  Uiso   1.00
C111   C     0.17888   0.48285   0.72760   0.00000  Uiso   1.00
C112   C     0.14876   0.51930   0.78314   0.00000  Uiso   1.00
C113   C     0.33792   0.43836   0.79537   0.00000  Uiso   1.00
C114   C     0.36063   0.34779   0.79665   0.00000  Uiso   1.00
C115   C     0.41363   0.32245   0.88379   0.00000  Uiso   1.00
H116   H     0.35707   0.64581   0.92490   0.00000  Uiso   1.00
H117   H     0.37578   0.77004   0.80813   0.00000  Uiso   1.00
H118   H     0.26092   0.66002   0.96035   0.00000  Uiso   1.00
H119   H     0.44264   0.52498   0.02939   0.00000  Uiso   1.00
H120   H     0.38363   0.87998   0.64214   0.00000  Uiso   1.00
H121   H     0.14145   0.64800   0.96314   0.00000  Uiso   1.00
H122   H     0.52465   0.36323   0.10874   0.00000  Uiso   1.00
H123   H     0.25790   0.43160   0.64351   0.00000  Uiso   1.00
H124   H     0.27117   0.54407   0.51129   0.00000  Uiso   1.00
H125   H     0.15631   0.43407   0.66352   0.00000  Uiso   1.00
H126   H     0.33803   0.29903   0.73256   0.00000  Uiso   1.00
H127   H     0.29873   0.69658   0.40122   0.00000  Uiso   1.00
H128   H     0.05655   0.46460   0.72222   0.00000  Uiso   1.00
H129   H     0.43974   0.17983   0.86781   0.00000  Uiso   1.00
O130   O     0.35168   0.86615   0.43977   0.00000  Uiso   1.00
O131   O     0.03396   0.56178   0.86093   0.00000  Uiso   1.00
O132   O     0.53670   0.18818   0.05194   0.00000  Uiso   1.00
N133   N     0.36184   0.82137   0.60359   0.00000  Uiso   1.00
N134   N     0.13541   0.60449   0.90369   0.00000  Uiso   1.00
N135   N     0.49366   0.33825   0.03982   0.00000  Uiso   1.00
N136   N     0.31616   0.72269   0.47395   0.00000  Uiso   1.00
N137   N     0.08973   0.50581   0.77405   0.00000  Uiso   1.00
N138   N     0.44797   0.23957   0.91019   0.00000  Uiso   1.00
C139   C     0.83435   0.09673   0.86043   0.00000  Uiso   1.00
C140   C     0.83077   0.13452   0.75797   0.00000  Uiso   1.00
C141   C     0.85320   0.22127   0.74403   0.00000  Uiso   1.00
C142   C     0.84541   0.24278   0.64422   0.00000  Uiso   1.00
C143   C     0.84426   0.31107   0.49771   0.00000  Uiso   1.00
C144   C     0.76836   0.07476   0.84066   0.00000  Uiso   1.00
C145   C     0.73832   0.11125   0.89627   0.00000  Uiso   1.00
C146   C     0.67799   0.08245   0.86609   0.00000  Uiso   1.00
C147   C     0.57997   0.05790   0.84802   0.00000  Uiso   1.00
C148   C     0.86710   0.00139   0.87817   0.00000  Uiso   1.00
C149   C     0.92007   0.97618   0.96533   0.00000  Uiso   1.00
C150   C     0.94287   0.88560   0.96674   0.00000  Uiso   1.00
C151   C     0.99814   0.74714   0.00692   0.00000  Uiso   1.00
C152   C     0.78062   0.98068   0.70798   0.00000  Uiso   1.00
C153   C     0.80159   0.07148   0.67516   0.00000  Uiso   1.00
C154   C     0.79376   0.09287   0.57535   0.00000  Uiso   1.00
C155   C     0.81618   0.17963   0.56127   0.00000  Uiso   1.00
C156   C     0.73918   0.01173   0.75786   0.00000  Uiso   1.00
C157   C     0.67888   0.98285   0.72760   0.00000  Uiso   1.00
C158   C     0.64876   0.01930   0.78314   0.00000  Uiso   1.00
C159   C     0.83792   0.93836   0.79537   0.00000  Uiso   1.00
C160   C     0.86063   0.84779   0.79665   0.00000  Uiso   1.00
C161   C     0.91363   0.82245   0.88379   0.00000  Uiso   1.00
H162   H     0.85707   0.14581   0.92490   0.00000  Uiso   1.00
H163   H     0.87578   0.27004   0.80813   0.00000  Uiso   1.00
H164   H     0.76092   0.16002   0.96035   0.00000  Uiso   1.00
H165   H     0.94264   0.02498   0.02939   0.00000  Uiso   1.00
H166   H     0.88363   0.37998   0.64214   0.00000  Uiso   1.00
H167   H     0.64145   0.14800   0.96314   0.00000  Uiso   1.00
H168   H     0.02465   0.86323   0.10874   0.00000  Uiso   1.00
H169   H     0.75790   0.93160   0.64351   0.00000  Uiso   1.00
H170   H     0.77117   0.04407   0.51129   0.00000  Uiso   1.00
H171   H     0.65631   0.93407   0.66352   0.00000  Uiso   1.00
H172   H     0.83803   0.79903   0.73256   0.00000  Uiso   1.00
H173   H     0.79873   0.19658   0.40122   0.00000  Uiso   1.00
H174   H     0.55655   0.96460   0.72222   0.00000  Uiso   1.00
H175   H     0.93974   0.67983   0.86781   0.00000  Uiso   1.00
O176   O     0.85168   0.36615   0.43977   0.00000  Uiso   1.00
O177   O     0.53396   0.06178   0.86093   0.00000  Uiso   1.00
O178   O     0.03670   0.68818   0.05194   0.00000  Uiso   1.00
N179   N     0.86184   0.32137   0.60359   0.00000  Uiso   1.00
N180   N     0.63541   0.10449   0.90369   0.00000  Uiso   1.00
N181   N     0.99366   0.83825   0.03982   0.00000  Uiso   1.00
N182   N     0.81616   0.22269   0.47395   0.00000  Uiso   1.00
N183   N     0.58973   0.00581   0.77405   0.00000  Uiso   1.00
N184   N     0.94797   0.73957   0.91019   0.00000  Uiso   1.00
C185   C     0.33435   0.40327   0.36043   0.00000  Uiso   1.00
C186   C     0.33077   0.36548   0.25797   0.00000  Uiso   1.00
C187   C     0.35320   0.27873   0.24403   0.00000  Uiso   1.00
C188   C     0.34541   0.25722   0.14422   0.00000  Uiso   1.00
C189   C     0.34426   0.18893   0.99771   0.00000  Uiso   1.00
C190   C     0.26836   0.42524   0.34066   0.00000  Uiso   1.00
C191   C     0.23832   0.38875   0.39627   0.00000  Uiso   1.00
C192   C     0.17799   0.41755   0.36609   0.00000  Uiso   1.00
C193   C     0.07997   0.44210   0.34802   0.00000  Uiso   1.00
C194   C     0.36710   0.49861   0.37817   0.00000  Uiso   1.00
C195   C     0.42007   0.52382   0.46533   0.00000  Uiso   1.00
C196   C     0.44287   0.61440   0.46674   0.00000  Uiso   1.00
C197   C     0.49814   0.75286   0.50692   0.00000  Uiso   1.00
C198   C     0.28062   0.51932   0.20798   0.00000  Uiso   1.00
C199   C     0.30159   0.42852   0.17516   0.00000  Uiso   1.00
C200   C     0.29376   0.40713   0.07535   0.00000  Uiso   1.00
C201   C     0.31618   0.32037   0.06127   0.00000  Uiso   1.00
C202   C     0.23918   0.48827   0.25786   0.00000  Uiso   1.00
C203   C     0.17888   0.51715   0.22760   0.00000  Uiso   1.00
C204   C     0.14876   0.48070   0.28314   0.00000  Uiso   1.00
C205   C     0.33792   0.56164   0.29537   0.00000  Uiso   1.00
C206   C     0.36063   0.65221   0.29665   0.00000  Uiso   1.00
C207   C     0.41363   0.67755   0.38379   0.00000  Uiso   1.00
H208   H     0.35707   0.35419   0.42490   0.00000  Uiso   1.00
H209   H     0.37578   0.22996   0.30813   0.00000  Uiso   1.00
H210   H     0.26092   0.33998   0.46035   0.00000  Uiso   1.00
H211   H     0.44264   0.47502   0.52939   0.00000  Uiso   1.00
H212   H     0.38363   0.12002   0.14214   0.00000  Uiso   1.00
H213   H     0.14145   0.35200   0.46314   0.00000  Uiso   1.00
H214   H     0.52465   0.63677   0.60874   0.00000  Uiso   1.00
H215   H     0.25790   0.56840   0.14351   0.00000  Uiso   1.00
H216   H     0.27117   0.45593   0.01129   0.00000  Uiso   1.00
H217   H     0.15631   0.56593   0.16352   0.00000  Uiso   1.00
H218   H     0.33803   0.70097   0.23256   0.00000  Uiso   1.00
H219   H     0.29873   0.30342   0.90122   0.00000  Uiso   1.00
H220   H     0.05655   0.53540   0.22222   0.00000  Uiso   1.00
H221   H     0.43974   0.82017   0.36781   0.00000  Uiso   1.00
O222   O     0.35168   0.13385   0.93977   0.00000  Uiso   1.00
O223   O     0.03396   0.43822   0.36093   0.00000  Uiso   1.00
O224   O     0.53670   0.81182   0.55194   0.00000  Uiso   1.00
N225   N     0.36184   0.17863   0.10359   0.00000  Uiso   1.00
N226   N     0.13541   0.39551   0.40369   0.00000  Uiso   1.00
N227   N     0.49366   0.66175   0.53982   0.00000  Uiso   1.00
N228   N     0.31616   0.27731   0.97395   0.00000  Uiso   1.00
N229   N     0.08973   0.49419   0.27405   0.00000  Uiso   1.00
N230   N     0.44797   0.76043   0.41019   0.00000  Uiso   1.00
C231   C     0.83435   0.90327   0.36043   0.00000  Uiso   1.00
C232   C     0.83077   0.86548   0.25797   0.00000  Uiso   1.00
C233   C     0.85320   0.77873   0.24403   0.00000  Uiso   1.00
C234   C     0.84541   0.75722   0.14422   0.00000  Uiso   1.00
C235   C     0.84426   0.68893   0.99771   0.00000  Uiso   1.00
C236   C     0.76836   0.92524   0.34066   0.00000  Uiso   1.00
C237   C     0.73832   0.88875   0.39627   0.00000  Uiso   1.00
C238   C     0.67799   0.91755   0.36609   0.00000  Uiso   1.00
C239   C     0.57997   0.94210   0.34802   0.00000  Uiso   1.00
C240   C     0.86710   0.99861   0.37817   0.00000  Uiso   1.00
C241   C     0.92007   0.02382   0.46533   0.00000  Uiso   1.00
C242   C     0.94287   0.11440   0.46674   0.00000  Uiso   1.00
C243   C     0.99814   0.25286   0.50692   0.00000  Uiso   1.00
C244   C     0.78062   0.01932   0.20798   0.00000  Uiso   1.00
C245   C     0.80159   0.92852   0.17516   0.00000  Uiso   1.00
C246   C     0.79376   0.90713   0.07535   0.00000  Uiso   1.00
C247   C     0.81618   0.82037   0.06127   0.00000  Uiso   1.00
C248   C     0.73918   0.98827   0.25786   0.00000  Uiso   1.00
C249   C     0.67888   0.01715   0.22760   0.00000  Uiso   1.00
C250   C     0.64876   0.98070   0.28314   0.00000  Uiso   1.00
C251   C     0.83792   0.06164   0.29537   0.00000  Uiso   1.00
C252   C     0.86063   0.15221   0.29665   0.00000  Uiso   1.00
C253   C     0.91363   0.17755   0.38379   0.00000  Uiso   1.00
H254   H     0.85707   0.85419   0.42490   0.00000  Uiso   1.00
H255   H     0.87578   0.72996   0.30813   0.00000  Uiso   1.00
H256   H     0.76092   0.83998   0.46035   0.00000  Uiso   1.00
H257   H     0.94264   0.97502   0.52939   0.00000  Uiso   1.00
H258   H     0.88363   0.62002   0.14214   0.00000  Uiso   1.00
H259   H     0.64145   0.85200   0.46314   0.00000  Uiso   1.00
H260   H     0.02465   0.13677   0.60874   0.00000  Uiso   1.00
H261   H     0.75790   0.06840   0.14351   0.00000  Uiso   1.00
H262   H     0.77117   0.95593   0.01129   0.00000  Uiso   1.00
H263   H     0.65631   0.06593   0.16352   0.00000  Uiso   1.00
H264   H     0.83803   0.20097   0.23256   0.00000  Uiso   1.00
H265   H     0.79873   0.80342   0.90122   0.00000  Uiso   1.00
H266   H     0.55655   0.03540   0.22222   0.00000  Uiso   1.00
H267   H     0.93974   0.32017   0.36781   0.00000  Uiso   1.00
O268   O     0.85168   0.63385   0.93977   0.00000  Uiso   1.00
O269   O     0.53396   0.93822   0.36093   0.00000  Uiso   1.00
O270   O     0.03670   0.31182   0.55194   0.00000  Uiso   1.00
N271   N     0.86184   0.67863   0.10359   0.00000  Uiso   1.00
N272   N     0.63541   0.89551   0.40369   0.00000  Uiso   1.00
N273   N     0.99366   0.16175   0.53982   0.00000  Uiso   1.00
N274   N     0.81616   0.77731   0.97395   0.00000  Uiso   1.00
N275   N     0.58973   0.99419   0.27405   0.00000  Uiso   1.00
N276   N     0.94797   0.26043   0.41019   0.00000  Uiso   1.00
C277   C     0.66565   0.40327   0.13957   0.00000  Uiso   1.00
C278   C     0.66923   0.36548   0.24203   0.00000  Uiso   1.00
C279   C     0.64680   0.27873   0.25597   0.00000  Uiso   1.00
C280   C     0.65459   0.25722   0.35578   0.00000  Uiso   1.00
C281   C     0.65574   0.18893   0.50229   0.00000  Uiso   1.00
C282   C     0.73164   0.42524   0.15934   0.00000  Uiso   1.00
C283   C     0.76168   0.38875   0.10373   0.00000  Uiso   1.00
C284   C     0.82201   0.41755   0.13391   0.00000  Uiso   1.00
C285   C     0.92003   0.44210   0.15198   0.00000  Uiso   1.00
C286   C     0.63290   0.49861   0.12183   0.00000  Uiso   1.00
C287   C     0.57993   0.52382   0.03467   0.00000  Uiso   1.00
C288   C     0.55713   0.61440   0.03326   0.00000  Uiso   1.00
C289   C     0.50186   0.75286   0.99308   0.00000  Uiso   1.00
C290   C     0.71938   0.51932   0.29202   0.00000  Uiso   1.00
C291   C     0.69841   0.42852   0.32484   0.00000  Uiso   1.00
C292   C     0.70624   0.40713   0.42465   0.00000  Uiso   1.00
C293   C     0.68382   0.32037   0.43873   0.00000  Uiso   1.00
C294   C     0.76082   0.48827   0.24214   0.00000  Uiso   1.00
C295   C     0.82112   0.51715   0.27240   0.00000  Uiso   1.00
C296   C     0.85124   0.48070   0.21686   0.00000  Uiso   1.00
C297   C     0.66208   0.56164   0.20463   0.00000  Uiso   1.00
C298   C     0.63937   0.65221   0.20335   0.00000  Uiso   1.00
C299   C     0.58637   0.67755   0.11621   0.00000  Uiso   1.00
H300   H     0.64293   0.35419   0.07510   0.00000  Uiso   1.00
H301   H     0.62422   0.22996   0.19187   0.00000  Uiso   1.00
H302   H     0.73908   0.33998   0.03965   0.00000  Uiso   1.00
H303   H     0.55736   0.47502   0.97061   0.00000  Uiso   1.00
H304   H     0.61637   0.12002   0.35786   0.00000  Uiso   1.00
H305   H     0.85855   0.35200   0.03686   0.00000  Uiso   1.00
H306   H     0.47535   0.63677   0.89126   0.00000  Uiso   1.00
H307   H     0.74210   0.56840   0.35649   0.00000  Uiso   1.00
H308   H     0.72883   0.45593   0.48871   0.00000  Uiso   1.00
H309   H     0.84369   0.56593   0.33648   0.00000  Uiso   1.00
H310   H     0.66197   0.70097   0.26744   0.00000  Uiso   1.00
H311   H     0.70127   0.30342   0.59878   0.00000  Uiso   1.00
H312   H     0.94345   0.53540   0.27778   0.00000  Uiso   1.00
H313   H     0.56026   0.82017   0.13219   0.00000  Uiso   1.00
O314   O     0.64832   0.13385   0.56023   0.00000  Uiso   1.00
O315   O     0.96604   0.43822   0.13907   0.00000  Uiso   1.00
O316   O     0.46330   0.81182   0.94806   0.00000  Uiso   1.00
N317   N     0.63816   0.17863   0.39641   0.00000  Uiso   1.00
N318   N     0.86459   0.39551   0.09631   0.00000  Uiso   1.00
N319   N     0.50634   0.66175   0.96018   0.00000  Uiso   1.00
N320   N     0.68384   0.27731   0.52605   0.00000  Uiso   1.00
N321   N     0.91027   0.49419   0.22595   0.00000  Uiso   1.00
N322   N     0.55203   0.76043   0.08981   0.00000  Uiso   1.00
C323   C     0.16565   0.90327   0.13957   0.00000  Uiso   1.00
C324   C     0.16923   0.86548   0.24203   0.00000  Uiso   1.00
C325   C     0.14680   0.77873   0.25597   0.00000  Uiso   1.00
C326   C     0.15459   0.75722   0.35578   0.00000  Uiso   1.00
C327   C     0.15574   0.68893   0.50229   0.00000  Uiso   1.00
C328   C     0.23164   0.92524   0.15934   0.00000  Uiso   1.00
C329   C     0.26168   0.88875   0.10373   0.00000  Uiso   1.00
C330   C     0.32201   0.91755   0.13391   0.00000  Uiso   1.00
C331   C     0.42003   0.94210   0.15198   0.00000  Uiso   1.00
C332   C     0.13290   0.99861   0.12183   0.00000  Uiso   1.00
C333   C     0.07993   0.02382   0.03467   0.00000  Uiso   1.00
C334   C     0.05713   0.11440   0.03326   0.00000  Uiso   1.00
C335   C     0.00186   0.25286   0.99308   0.00000  Uiso   1.00
C336   C     0.21938   0.01932   0.29202   0.00000  Uiso   1.00
C337   C     0.19841   0.92852   0.32484   0.00000  Uiso   1.00
C338   C     0.20624   0.90713   0.42465   0.00000  Uiso   1.00
C339   C     0.18382   0.82037   0.43873   0.00000  Uiso   1.00
C340   C     0.26082   0.98827   0.24214   0.00000  Uiso   1.00
C341   C     0.32112   0.01715   0.27240   0.00000  Uiso   1.00
C342   C     0.35124   0.98070   0.21686   0.00000  Uiso   1.00
C343   C     0.16208   0.06164   0.20463   0.00000  Uiso   1.00
C344   C     0.13937   0.15221   0.20335   0.00000  Uiso   1.00
C345   C     0.08637   0.17755   0.11621   0.00000  Uiso   1.00
H346   H     0.14293   0.85419   0.07510   0.00000  Uiso   1.00
H347   H     0.12422   0.72996   0.19187   0.00000  Uiso   1.00
H348   H     0.23908   0.83998   0.03965   0.00000  Uiso   1.00
H349   H     0.05736   0.97502   0.97061   0.00000  Uiso   1.00
H350   H     0.11637   0.62002   0.35786   0.00000  Uiso   1.00
H351   H     0.35855   0.85200   0.03686   0.00000  Uiso   1.00
H352   H     0.97535   0.13677   0.89126   0.00000  Uiso   1.00
H353   H     0.24210   0.06840   0.35649   0.00000  Uiso   1.00
H354   H     0.22883   0.95593   0.48871   0.00000  Uiso   1.00
H355   H     0.34369   0.06593   0.33648   0.00000  Uiso   1.00
H356   H     0.16197   0.20097   0.26744   0.00000  Uiso   1.00
H357   H     0.20127   0.80342   0.59878   0.00000  Uiso   1.00
H358   H     0.44345   0.03540   0.27778   0.00000  Uiso   1.00
H359   H     0.06026   0.32017   0.13219   0.00000  Uiso   1.00
O360   O     0.14832   0.63385   0.56023   0.00000  Uiso   1.00
O361   O     0.46604   0.93822   0.13907   0.00000  Uiso   1.00
O362   O     0.96330   0.31182   0.94806   0.00000  Uiso   1.00
N363   N     0.13816   0.67863   0.39641   0.00000  Uiso   1.00
N364   N     0.36459   0.89551   0.09631   0.00000  Uiso   1.00
N365   N     0.00634   0.16175   0.96018   0.00000  Uiso   1.00
N366   N     0.18384   0.77731   0.52605   0.00000  Uiso   1.00
N367   N     0.41027   0.99419   0.22595   0.00000  Uiso   1.00
N368   N     0.05203   0.26043   0.08981   0.00000  Uiso   1.00
