data_job_06727
_audit_creation_date              2018-12-19
_audit_creation_method            'Materials Studio'
_symmetry_space_group_name_H-M    'P1'
_symmetry_Int_Tables_number       1
_symmetry_cell_setting            triclinic
loop_
_symmetry_equiv_pos_as_xyz
  x,y,z
_cell_length_a                    22.3534
_cell_length_b                    23.4962
_cell_length_c                    23.5584
_cell_angle_alpha                 115.7364
_cell_angle_beta                  117.5909
_cell_angle_gamma                 91.3162
loop_
_atom_site_label
_atom_site_type_symbol
_atom_site_fract_x
_atom_site_fract_y
_atom_site_fract_z
_atom_site_U_iso_or_equiv
_atom_site_adp_type
_atom_site_occupancy
C1     C     0.51896   0.33781   0.16591   0.00000  Uiso   1.00
C2     C     0.48037   0.32713   0.08759   0.00000  Uiso   1.00
C3     C     0.40887   0.31833   0.04470   0.00000  Uiso   1.00
C4     C     0.38371   0.30929   0.97445   0.00000  Uiso   1.00
C5     C     0.31697   0.29270   0.85682   0.00000  Uiso   1.00
C6     C     0.55588   0.28375   0.16326   0.00000  Uiso   1.00
C7     C     0.54787   0.23849   0.18402   0.00000  Uiso   1.00
C8     C     0.58628   0.19295   0.17748   0.00000  Uiso   1.00
C9     C     0.63682   0.10905   0.17739   0.00000  Uiso   1.00
C10    C     0.57713   0.40227   0.21365   0.00000  Uiso   1.00
C11    C     0.58700   0.45665   0.27678   0.00000  Uiso   1.00
C12    C     0.64331   0.51088   0.31267   0.00000  Uiso   1.00
C13    C     0.72685   0.61100   0.39081   0.00000  Uiso   1.00
C14    C     0.60143   0.33741   0.11741   0.00000  Uiso   1.00
C15    C     0.52517   0.32691   0.06124   0.00000  Uiso   1.00
C16    C     0.50011   0.31789   0.99104   0.00000  Uiso   1.00
C17    C     0.42858   0.30907   0.94806   0.00000  Uiso   1.00
C18    C     0.60068   0.28354   0.13692   0.00000  Uiso   1.00
C19    C     0.63912   0.23805   0.13035   0.00000  Uiso   1.00
C20    C     0.63116   0.19273   0.15108   0.00000  Uiso   1.00
C21    C     0.62193   0.40205   0.18730   0.00000  Uiso   1.00
C22    C     0.67824   0.45621   0.22311   0.00000  Uiso   1.00
C23    C     0.68819   0.51066   0.28628   0.00000  Uiso   1.00
H24    H     0.48408   0.33798   0.18643   0.00000  Uiso   1.00
H25    H     0.37422   0.31849   0.06511   0.00000  Uiso   1.00
H26    H     0.51320   0.23868   0.20441   0.00000  Uiso   1.00
H27    H     0.55232   0.45680   0.29715   0.00000  Uiso   1.00
H28    H     0.27216   0.29677   0.91898   0.00000  Uiso   1.00
H29    H     0.56524   0.12849   0.21272   0.00000  Uiso   1.00
H30    H     0.64774   0.58844   0.40829   0.00000  Uiso   1.00
H31    H     0.63631   0.33724   0.09690   0.00000  Uiso   1.00
H32    H     0.53479   0.31772   0.97066   0.00000  Uiso   1.00
H33    H     0.67378   0.23790   0.10996   0.00000  Uiso   1.00
H34    H     0.71290   0.45602   0.20270   0.00000  Uiso   1.00
H35    H     0.40249   0.29614   0.84232   0.00000  Uiso   1.00
H36    H     0.69557   0.12786   0.13607   0.00000  Uiso   1.00
H37    H     0.77806   0.58781   0.33163   0.00000  Uiso   1.00
O38    O     0.26779   0.28360   0.79922   0.00000  Uiso   1.00
O39    O     0.65231   0.06283   0.18461   0.00000  Uiso   1.00
O40    O     0.76054   0.66628   0.44118   0.00000  Uiso   1.00
N41    N     0.31676   0.29931   0.91827   0.00000  Uiso   1.00
N42    N     0.59077   0.14197   0.19289   0.00000  Uiso   1.00
N43    N     0.66791   0.57199   0.37574   0.00000  Uiso   1.00
N44    N     0.38689   0.29898   0.87702   0.00000  Uiso   1.00
N45    N     0.66090   0.14163   0.15164   0.00000  Uiso   1.00
N46    N     0.73804   0.57165   0.33449   0.00000  Uiso   1.00
C47    C     0.42219   0.87486   0.17585   0.00000  Uiso   1.00
C48    C     0.40048   0.80096   0.14570   0.00000  Uiso   1.00
C49    C     0.33211   0.76169   0.10626   0.00000  Uiso   1.00
C50    C     0.32323   0.69519   0.08353   0.00000  Uiso   1.00
C51    C     0.28078   0.58445   0.03428   0.00000  Uiso   1.00
C52    C     0.47444   0.90582   0.25882   0.00000  Uiso   1.00
C53    C     0.46825   0.95472   0.31450   0.00000  Uiso   1.00
C54    C     0.52163   0.97651   0.38700   0.00000  Uiso   1.00
C55    C     0.59402   0.02860   0.51338   0.00000  Uiso   1.00
C56    C     0.46417   0.88472   0.14343   0.00000  Uiso   1.00
C57    C     0.44936   0.91589   0.10209   0.00000  Uiso   1.00
C58    C     0.49411   0.91992   0.07745   0.00000  Uiso   1.00
C59    C     0.55056   0.93924   0.02466   0.00000  Uiso   1.00
C60    C     0.52800   0.82661   0.20561   0.00000  Uiso   1.00
C61    C     0.45795   0.77476   0.16186   0.00000  Uiso   1.00
C62    C     0.44917   0.70831   0.13918   0.00000  Uiso   1.00
C63    C     0.38080   0.66894   0.09971   0.00000  Uiso   1.00
C64    C     0.53191   0.87962   0.27499   0.00000  Uiso   1.00
C65    C     0.58531   0.90135   0.34742   0.00000  Uiso   1.00
C66    C     0.57921   0.95026   0.40319   0.00000  Uiso   1.00
C67    C     0.52164   0.85852   0.15959   0.00000  Uiso   1.00
C68    C     0.56642   0.86251   0.13501   0.00000  Uiso   1.00
C69    C     0.55169   0.89367   0.09364   0.00000  Uiso   1.00
H70    H     0.37745   0.89526   0.16327   0.00000  Uiso   1.00
H71    H     0.28765   0.78198   0.09377   0.00000  Uiso   1.00
H72    H     0.42377   0.97500   0.30197   0.00000  Uiso   1.00
H73    H     0.40489   0.93616   0.08960   0.00000  Uiso   1.00
H74    H     0.21343   0.64485   0.02386   0.00000  Uiso   1.00
H75    H     0.50047   0.05184   0.46288   0.00000  Uiso   1.00
H76    H     0.46064   0.96995   0.01504   0.00000  Uiso   1.00
H77    H     0.57275   0.80621   0.21819   0.00000  Uiso   1.00
H78    H     0.49366   0.68805   0.15169   0.00000  Uiso   1.00
H79    H     0.62978   0.88106   0.35991   0.00000  Uiso   1.00
H80    H     0.61089   0.84223   0.14753   0.00000  Uiso   1.00
H81    H     0.38064   0.56860   0.07088   0.00000  Uiso   1.00
H82    H     0.66767   0.97560   0.50990   0.00000  Uiso   1.00
H83    H     0.62785   0.89371   0.06206   0.00000  Uiso   1.00
O84    O     0.24148   0.53060   0.00266   0.00000  Uiso   1.00
O85    O     0.61807   0.06457   0.57863   0.00000  Uiso   1.00
O86    O     0.56582   0.95713   0.99107   0.00000  Uiso   1.00
N87    N     0.26364   0.64312   0.04404   0.00000  Uiso   1.00
N88    N     0.53199   0.02362   0.45449   0.00000  Uiso   1.00
N89    N     0.49477   0.94708   0.03582   0.00000  Uiso   1.00
N90    N     0.35361   0.60209   0.06934   0.00000  Uiso   1.00
N91    N     0.62196   0.98260   0.47979   0.00000  Uiso   1.00
N92    N     0.58474   0.90606   0.06112   0.00000  Uiso   1.00
C93    C     0.45309   0.31619   0.66617   0.00000  Uiso   1.00
C94    C     0.45240   0.36647   0.73384   0.00000  Uiso   1.00
C95    C     0.40013   0.36096   0.74892   0.00000  Uiso   1.00
C96    C     0.40923   0.41225   0.81372   0.00000  Uiso   1.00
C97    C     0.39912   0.48200   0.91148   0.00000  Uiso   1.00
C98    C     0.45992   0.35332   0.62911   0.00000  Uiso   1.00
C99    C     0.41399   0.33675   0.55615   0.00000  Uiso   1.00
C100   C     0.42943   0.37697   0.53279   0.00000  Uiso   1.00
C101   C     0.43103   0.42628   0.46795   0.00000  Uiso   1.00
C102   C     0.52172   0.29792   0.69603   0.00000  Uiso   1.00
C103   C     0.52775   0.23477   0.67931   0.00000  Uiso   1.00
C104   C     0.59522   0.22835   0.71228   0.00000  Uiso   1.00
C105   C     0.69277   0.19165   0.75134   0.00000  Uiso   1.00
C106   C     0.56220   0.41708   0.75442   0.00000  Uiso   1.00
C107   C     0.51166   0.42127   0.78177   0.00000  Uiso   1.00
C108   C     0.52084   0.47259   0.84656   0.00000  Uiso   1.00
C109   C     0.46860   0.46715   0.86175   0.00000  Uiso   1.00
C110   C     0.51918   0.40812   0.67704   0.00000  Uiso   1.00
C111   C     0.53470   0.44838   0.65379   0.00000  Uiso   1.00
C112   C     0.48879   0.43187   0.58081   0.00000  Uiso   1.00
C113   C     0.58098   0.35273   0.74397   0.00000  Uiso   1.00
C114   C     0.64846   0.34640   0.77696   0.00000  Uiso   1.00
C115   C     0.65459   0.28325   0.76030   0.00000  Uiso   1.00
H116   H     0.40695   0.27352   0.62885   0.00000  Uiso   1.00
H117   H     0.35427   0.31854   0.71181   0.00000  Uiso   1.00
H118   H     0.36813   0.29433   0.51906   0.00000  Uiso   1.00
H119   H     0.48188   0.19237   0.64222   0.00000  Uiso   1.00
H120   H     0.32199   0.39263   0.82492   0.00000  Uiso   1.00
H121   H     0.35123   0.34157   0.41849   0.00000  Uiso   1.00
H122   H     0.59108   0.12656   0.67818   0.00000  Uiso   1.00
H123   H     0.60834   0.45975   0.79174   0.00000  Uiso   1.00
H124   H     0.56671   0.51499   0.88365   0.00000  Uiso   1.00
H125   H     0.58056   0.49078   0.69089   0.00000  Uiso   1.00
H126   H     0.69431   0.38882   0.81405   0.00000  Uiso   1.00
H127   H     0.49440   0.55208   0.96438   0.00000  Uiso   1.00
H128   H     0.52364   0.50101   0.55795   0.00000  Uiso   1.00
H129   H     0.76349   0.28601   0.81765   0.00000  Uiso   1.00
O130   O     0.37716   0.50534   0.95216   0.00000  Uiso   1.00
O131   O     0.41553   0.43834   0.41894   0.00000  Uiso   1.00
O132   O     0.73021   0.15626   0.75965   0.00000  Uiso   1.00
N133   N     0.36829   0.42257   0.84514   0.00000  Uiso   1.00
N134   N     0.39561   0.37484   0.46515   0.00000  Uiso   1.00
N135   N     0.61986   0.17382   0.70793   0.00000  Uiso   1.00
N136   N     0.46106   0.50836   0.92018   0.00000  Uiso   1.00
N137   N     0.48839   0.46063   0.54020   0.00000  Uiso   1.00
N138   N     0.71263   0.25962   0.78297   0.00000  Uiso   1.00
C139   C     0.89092   0.83203   0.10821   0.00000  Uiso   1.00
C140   C     0.88130   0.88478   0.08604   0.00000  Uiso   1.00
C141   C     0.82133   0.88161   0.02670   0.00000  Uiso   1.00
C142   C     0.82295   0.93492   0.01567   0.00000  Uiso   1.00
C143   C     0.79894   0.00855   0.97416   0.00000  Uiso   1.00
C144   C     0.91030   0.86615   0.18865   0.00000  Uiso   1.00
C145   C     0.87471   0.84731   0.21557   0.00000  Uiso   1.00
C146   C     0.90075   0.88494   0.29092   0.00000  Uiso   1.00
C147   C     0.92180   0.92961   0.40872   0.00000  Uiso   1.00
C148   C     0.95622   0.81393   0.10885   0.00000  Uiso   1.00
C149   C     0.95926   0.75118   0.06870   0.00000  Uiso   1.00
C150   C     0.02396   0.74485   0.07688   0.00000  Uiso   1.00
C151   C     0.11630   0.70844   0.07079   0.00000  Uiso   1.00
C152   C     0.00043   0.93236   0.19415   0.00000  Uiso   1.00
C153   C     0.94078   0.93927   0.13272   0.00000  Uiso   1.00
C154   C     0.94249   0.99261   0.12177   0.00000  Uiso   1.00
C155   C     0.88254   0.98952   0.06243   0.00000  Uiso   1.00
C156   C     0.96978   0.92064   0.23532   0.00000  Uiso   1.00
C157   C     0.99587   0.95831   0.31065   0.00000  Uiso   1.00
C158   C     0.96034   0.93953   0.33768   0.00000  Uiso   1.00
C159   C     0.01570   0.86842   0.15553   0.00000  Uiso   1.00
C160   C     0.08041   0.86218   0.16378   0.00000  Uiso   1.00
C161   C     0.08355   0.79944   0.12365   0.00000  Uiso   1.00
H162   H     0.84461   0.78961   0.07188   0.00000  Uiso   1.00
H163   H     0.77531   0.83943   0.99059   0.00000  Uiso   1.00
H164   H     0.82869   0.80513   0.17944   0.00000  Uiso   1.00
H165   H     0.91321   0.70902   0.03259   0.00000  Uiso   1.00
H166   H     0.72469   0.91870   0.92107   0.00000  Uiso   1.00
H167   H     0.83726   0.84637   0.31927   0.00000  Uiso   1.00
H168   H     0.01550   0.64371   0.00961   0.00000  Uiso   1.00
H169   H     0.04674   0.97479   0.23049   0.00000  Uiso   1.00
H170   H     0.98853   0.03477   0.15791   0.00000  Uiso   1.00
H171   H     0.04191   0.00047   0.34676   0.00000  Uiso   1.00
H172   H     0.12643   0.90437   0.19990   0.00000  Uiso   1.00
H173   H     0.89774   0.07726   0.05687   0.00000  Uiso   1.00
H174   H     0.01032   0.00492   0.45507   0.00000  Uiso   1.00
H175   H     0.18856   0.80226   0.14541   0.00000  Uiso   1.00
O176   O     0.76926   0.03411   0.93837   0.00000  Uiso   1.00
O177   O     0.91696   0.93920   0.46080   0.00000  Uiso   1.00
O178   O     0.15081   0.67331   0.05452   0.00000  Uiso   1.00
N179   N     0.77341   0.94778   0.96298   0.00000  Uiso   1.00
N180   N     0.87865   0.88016   0.33528   0.00000  Uiso   1.00
N181   N     0.04530   0.69068   0.04578   0.00000  Uiso   1.00
N182   N     0.86653   0.03310   0.03606   0.00000  Uiso   1.00
N183   N     0.97177   0.96547   0.40835   0.00000  Uiso   1.00
N184   N     0.13842   0.77600   0.11885   0.00000  Uiso   1.00
C185   C     0.06900   0.78541   0.63617   0.00000  Uiso   1.00
C186   C     0.01328   0.76789   0.65057   0.00000  Uiso   1.00
C187   C     0.94111   0.75214   0.60374   0.00000  Uiso   1.00
C188   C     0.89894   0.73756   0.62690   0.00000  Uiso   1.00
C189   C     0.80799   0.71015   0.63896   0.00000  Uiso   1.00
C190   C     0.11284   0.73701   0.64082   0.00000  Uiso   1.00
C191   C     0.12439   0.69530   0.58579   0.00000  Uiso   1.00
C192   C     0.16604   0.65475   0.60075   0.00000  Uiso   1.00
C193   C     0.22972   0.57943   0.59769   0.00000  Uiso   1.00
C194   C     0.11751   0.85279   0.70239   0.00000  Uiso   1.00
C195   C     0.13301   0.90843   0.69913   0.00000  Uiso   1.00
C196   C     0.17861   0.96535   0.76593   0.00000  Uiso   1.00
C197   C     0.24954   0.06980   0.85846   0.00000  Uiso   1.00
C198   C     0.12244   0.78755   0.76060   0.00000  Uiso   1.00
C199   C     0.04231   0.76905   0.71815   0.00000  Uiso   1.00
C200   C     0.00024   0.75450   0.74140   0.00000  Uiso   1.00
C201   C     0.92802   0.73873   0.69461   0.00000  Uiso   1.00
C202   C     0.14187   0.73817   0.70840   0.00000  Uiso   1.00
C203   C     0.18352   0.69767   0.72345   0.00000  Uiso   1.00
C204   C     0.19512   0.65591   0.66846   0.00000  Uiso   1.00
C205   C     0.14654   0.85396   0.76997   0.00000  Uiso   1.00
C206   C     0.19213   0.91080   0.83679   0.00000  Uiso   1.00
C207   C     0.20769   0.96652   0.83363   0.00000  Uiso   1.00
H208   H     0.04641   0.78450   0.58355   0.00000  Uiso   1.00
H209   H     0.91866   0.75123   0.55143   0.00000  Uiso   1.00
H210   H     0.10192   0.69442   0.53350   0.00000  Uiso   1.00
H211   H     0.11054   0.90751   0.64682   0.00000  Uiso   1.00
H212   H     0.78984   0.71484   0.54562   0.00000  Uiso   1.00
H213   H     0.17627   0.59506   0.50780   0.00000  Uiso   1.00
H214   H     0.19444   0.04441   0.74676   0.00000  Uiso   1.00
H215   H     0.14505   0.78846   0.81322   0.00000  Uiso   1.00
H216   H     0.02271   0.75541   0.79370   0.00000  Uiso   1.00
H217   H     0.20598   0.69859   0.77576   0.00000  Uiso   1.00
H218   H     0.21459   0.91168   0.88908   0.00000  Uiso   1.00
H219   H     0.87429   0.71822   0.74225   0.00000  Uiso   1.00
H220   H     0.26073   0.59844   0.70443   0.00000  Uiso   1.00
H221   H     0.27889   0.04779   0.94339   0.00000  Uiso   1.00
O222   O     0.74981   0.69469   0.62694   0.00000  Uiso   1.00
O223   O     0.25681   0.53756   0.57733   0.00000  Uiso   1.00
O224   O     0.28064   0.12709   0.89084   0.00000  Uiso   1.00
N225   N     0.82650   0.72018   0.59458   0.00000  Uiso   1.00
N226   N     0.18779   0.60819   0.55922   0.00000  Uiso   1.00
N227   N     0.20479   0.02829   0.78262   0.00000  Uiso   1.00
N228   N     0.87195   0.72200   0.70039   0.00000  Uiso   1.00
N229   N     0.23323   0.61001   0.66502   0.00000  Uiso   1.00
N230   N     0.25023   0.03011   0.88843   0.00000  Uiso   1.00
C231   C     0.92623   0.35648   0.14678   0.00000  Uiso   1.00
C232   C     0.94328   0.29437   0.10684   0.00000  Uiso   1.00
C233   C     0.89589   0.23226   0.05502   0.00000  Uiso   1.00
C234   C     0.92181   0.18183   0.02480   0.00000  Uiso   1.00
C235   C     0.93751   0.08368   0.95957   0.00000  Uiso   1.00
C236   C     0.94845   0.40669   0.13055   0.00000  Uiso   1.00
C237   C     0.90541   0.43901   0.09867   0.00000  Uiso   1.00
C238   C     0.93569   0.48314   0.08842   0.00000  Uiso   1.00
C239   C     0.95943   0.55938   0.06004   0.00000  Uiso   1.00
C240   C     0.97625   0.38270   0.22933   0.00000  Uiso   1.00
C241   C     0.95659   0.39487   0.28051   0.00000  Uiso   1.00
C242   C     0.01028   0.41881   0.35343   0.00000  Uiso   1.00
C243   C     0.07719   0.45781   0.47843   0.00000  Uiso   1.00
C244   C     0.05653   0.37736   0.18526   0.00000  Uiso   1.00
C245   C     0.01405   0.30572   0.12774   0.00000  Uiso   1.00
C246   C     0.04005   0.25537   0.09759   0.00000  Uiso   1.00
C247   C     0.99271   0.19319   0.04574   0.00000  Uiso   1.00
C248   C     0.01922   0.41803   0.15145   0.00000  Uiso   1.00
C249   C     0.04957   0.46212   0.14125   0.00000  Uiso   1.00
C250   C     0.00659   0.49450   0.10936   0.00000  Uiso   1.00
C251   C     0.04702   0.39404   0.25023   0.00000  Uiso   1.00
C252   C     0.10075   0.41797   0.32309   0.00000  Uiso   1.00
C253   C     0.08118   0.43018   0.37437   0.00000  Uiso   1.00
H254   H     0.87113   0.34765   0.13051   0.00000  Uiso   1.00
H255   H     0.84113   0.22351   0.03885   0.00000  Uiso   1.00
H256   H     0.85065   0.43023   0.08250   0.00000  Uiso   1.00
H257   H     0.90182   0.38609   0.26432   0.00000  Uiso   1.00
H258   H     0.83907   0.09087   0.94643   0.00000  Uiso   1.00
H259   H     0.85915   0.52678   0.03850   0.00000  Uiso   1.00
H260   H     0.96706   0.43370   0.42189   0.00000  Uiso   1.00
H261   H     0.11163   0.38620   0.20154   0.00000  Uiso   1.00
H262   H     0.09482   0.26416   0.11378   0.00000  Uiso   1.00
H263   H     0.10434   0.47089   0.15743   0.00000  Uiso   1.00
H264   H     0.15551   0.42674   0.33924   0.00000  Uiso   1.00
H265   H     0.04497   0.12387   0.00724   0.00000  Uiso   1.00
H266   H     0.06505   0.55978   0.09931   0.00000  Uiso   1.00
H267   H     0.17296   0.46670   0.48270   0.00000  Uiso   1.00
O268   O     0.92662   0.02640   0.91781   0.00000  Uiso   1.00
O269   O     0.95296   0.59830   0.03861   0.00000  Uiso   1.00
O270   O     0.09454   0.47618   0.54161   0.00000  Uiso   1.00
N271   N     0.88984   0.11539   0.97280   0.00000  Uiso   1.00
N272   N     0.90861   0.52292   0.05886   0.00000  Uiso   1.00
N273   N     0.00949   0.43592   0.41731   0.00000  Uiso   1.00
N274   N     0.00063   0.13314   0.00552   0.00000  Uiso   1.00
N275   N     0.01940   0.54068   0.09159   0.00000  Uiso   1.00
N276   N     0.12029   0.45367   0.45003   0.00000  Uiso   1.00
C277   C     0.48104   0.66219   0.83409   0.00000  Uiso   1.00
C278   C     0.51963   0.67287   0.91241   0.00000  Uiso   1.00
C279   C     0.59113   0.68167   0.95530   0.00000  Uiso   1.00
C280   C     0.61629   0.69071   0.02555   0.00000  Uiso   1.00
C281   C     0.68303   0.70730   0.14318   0.00000  Uiso   1.00
C282   C     0.44412   0.71625   0.83674   0.00000  Uiso   1.00
C283   C     0.45213   0.76151   0.81598   0.00000  Uiso   1.00
C284   C     0.41372   0.80705   0.82252   0.00000  Uiso   1.00
C285   C     0.36318   0.89095   0.82261   0.00000  Uiso   1.00
C286   C     0.42287   0.59773   0.78635   0.00000  Uiso   1.00
C287   C     0.41300   0.54335   0.72322   0.00000  Uiso   1.00
C288   C     0.35669   0.48912   0.68733   0.00000  Uiso   1.00
C289   C     0.27315   0.38900   0.60919   0.00000  Uiso   1.00
C290   C     0.39857   0.66259   0.88259   0.00000  Uiso   1.00
C291   C     0.47483   0.67309   0.93876   0.00000  Uiso   1.00
C292   C     0.49989   0.68211   0.00896   0.00000  Uiso   1.00
C293   C     0.57142   0.69093   0.05194   0.00000  Uiso   1.00
C294   C     0.39932   0.71646   0.86308   0.00000  Uiso   1.00
C295   C     0.36088   0.76195   0.86965   0.00000  Uiso   1.00
C296   C     0.36884   0.80727   0.84892   0.00000  Uiso   1.00
C297   C     0.37807   0.59795   0.81270   0.00000  Uiso   1.00
C298   C     0.32176   0.54379   0.77689   0.00000  Uiso   1.00
C299   C     0.31181   0.48934   0.71372   0.00000  Uiso   1.00
H300   H     0.51592   0.66202   0.81357   0.00000  Uiso   1.00
H301   H     0.62578   0.68151   0.93489   0.00000  Uiso   1.00
H302   H     0.48680   0.76132   0.79559   0.00000  Uiso   1.00
H303   H     0.44768   0.54320   0.70285   0.00000  Uiso   1.00
H304   H     0.72784   0.70323   0.08102   0.00000  Uiso   1.00
H305   H     0.43476   0.87151   0.78728   0.00000  Uiso   1.00
H306   H     0.35226   0.41156   0.59171   0.00000  Uiso   1.00
H307   H     0.36369   0.66276   0.90310   0.00000  Uiso   1.00
H308   H     0.46521   0.68228   0.02934   0.00000  Uiso   1.00
H309   H     0.32622   0.76210   0.89004   0.00000  Uiso   1.00
H310   H     0.28710   0.54398   0.79730   0.00000  Uiso   1.00
H311   H     0.59751   0.70386   0.15768   0.00000  Uiso   1.00
H312   H     0.30443   0.87214   0.86393   0.00000  Uiso   1.00
H313   H     0.22194   0.41219   0.66837   0.00000  Uiso   1.00
O314   O     0.73221   0.71640   0.20078   0.00000  Uiso   1.00
O315   O     0.34769   0.93717   0.81539   0.00000  Uiso   1.00
O316   O     0.23946   0.33372   0.55882   0.00000  Uiso   1.00
N317   N     0.68324   0.70069   0.08173   0.00000  Uiso   1.00
N318   N     0.40923   0.85803   0.80711   0.00000  Uiso   1.00
N319   N     0.33209   0.42801   0.62426   0.00000  Uiso   1.00
N320   N     0.61311   0.70102   0.12298   0.00000  Uiso   1.00
N321   N     0.33910   0.85837   0.84836   0.00000  Uiso   1.00
N322   N     0.26196   0.42835   0.66551   0.00000  Uiso   1.00
C323   C     0.57781   0.12514   0.82415   0.00000  Uiso   1.00
C324   C     0.59952   0.19904   0.85430   0.00000  Uiso   1.00
C325   C     0.66789   0.23831   0.89374   0.00000  Uiso   1.00
C326   C     0.67677   0.30481   0.91647   0.00000  Uiso   1.00
C327   C     0.71922   0.41555   0.96572   0.00000  Uiso   1.00
C328   C     0.52556   0.09418   0.74118   0.00000  Uiso   1.00
C329   C     0.53175   0.04528   0.68550   0.00000  Uiso   1.00
C330   C     0.47837   0.02349   0.61300   0.00000  Uiso   1.00
C331   C     0.40598   0.97140   0.48662   0.00000  Uiso   1.00
C332   C     0.53583   0.11528   0.85657   0.00000  Uiso   1.00
C333   C     0.55064   0.08411   0.89791   0.00000  Uiso   1.00
C334   C     0.50589   0.08008   0.92255   0.00000  Uiso   1.00
C335   C     0.44944   0.06076   0.97534   0.00000  Uiso   1.00
C336   C     0.47200   0.17339   0.79439   0.00000  Uiso   1.00
C337   C     0.54205   0.22524   0.83814   0.00000  Uiso   1.00
C338   C     0.55083   0.29169   0.86082   0.00000  Uiso   1.00
C339   C     0.61920   0.33106   0.90029   0.00000  Uiso   1.00
C340   C     0.46809   0.12038   0.72501   0.00000  Uiso   1.00
C341   C     0.41469   0.09865   0.65258   0.00000  Uiso   1.00
C342   C     0.42079   0.04974   0.59681   0.00000  Uiso   1.00
C343   C     0.47836   0.14148   0.84041   0.00000  Uiso   1.00
C344   C     0.43358   0.13749   0.86499   0.00000  Uiso   1.00
C345   C     0.44831   0.10633   0.90636   0.00000  Uiso   1.00
H346   H     0.62255   0.10474   0.83673   0.00000  Uiso   1.00
H347   H     0.71235   0.21802   0.90623   0.00000  Uiso   1.00
H348   H     0.57623   0.02500   0.69803   0.00000  Uiso   1.00
H349   H     0.59511   0.06384   0.91040   0.00000  Uiso   1.00
H350   H     0.78657   0.35515   0.97614   0.00000  Uiso   1.00
H351   H     0.49953   0.94816   0.53712   0.00000  Uiso   1.00
H352   H     0.53936   0.03005   0.98496   0.00000  Uiso   1.00
H353   H     0.42725   0.19379   0.78181   0.00000  Uiso   1.00
H354   H     0.50634   0.31195   0.84831   0.00000  Uiso   1.00
H355   H     0.37022   0.11894   0.64009   0.00000  Uiso   1.00
H356   H     0.38911   0.15777   0.85247   0.00000  Uiso   1.00
H357   H     0.61936   0.43140   0.92912   0.00000  Uiso   1.00
H358   H     0.33233   0.02440   0.49010   0.00000  Uiso   1.00
H359   H     0.37215   0.10629   0.93794   0.00000  Uiso   1.00
O360   O     0.75852   0.46940   0.99734   0.00000  Uiso   1.00
O361   O     0.38193   0.93543   0.42137   0.00000  Uiso   1.00
O362   O     0.43418   0.04287   0.00893   0.00000  Uiso   1.00
N363   N     0.73636   0.35688   0.95596   0.00000  Uiso   1.00
N364   N     0.46801   0.97638   0.54551   0.00000  Uiso   1.00
N365   N     0.50523   0.05292   0.96418   0.00000  Uiso   1.00
N366   N     0.64639   0.39791   0.93066   0.00000  Uiso   1.00
N367   N     0.37804   0.01740   0.52021   0.00000  Uiso   1.00
N368   N     0.41526   0.09394   0.93888   0.00000  Uiso   1.00
C369   C     0.54691   0.68381   0.33383   0.00000  Uiso   1.00
C370   C     0.54760   0.63353   0.26616   0.00000  Uiso   1.00
C371   C     0.59987   0.63904   0.25108   0.00000  Uiso   1.00
C372   C     0.59077   0.58775   0.18628   0.00000  Uiso   1.00
C373   C     0.60088   0.51800   0.08852   0.00000  Uiso   1.00
C374   C     0.54008   0.64668   0.37089   0.00000  Uiso   1.00
C375   C     0.58601   0.66325   0.44385   0.00000  Uiso   1.00
C376   C     0.57057   0.62303   0.46721   0.00000  Uiso   1.00
C377   C     0.56897   0.57372   0.53205   0.00000  Uiso   1.00
C378   C     0.47828   0.70208   0.30397   0.00000  Uiso   1.00
C379   C     0.47225   0.76523   0.32069   0.00000  Uiso   1.00
C380   C     0.40478   0.77165   0.28772   0.00000  Uiso   1.00
C381   C     0.30723   0.80835   0.24866   0.00000  Uiso   1.00
C382   C     0.43780   0.58292   0.24558   0.00000  Uiso   1.00
C383   C     0.48834   0.57873   0.21823   0.00000  Uiso   1.00
C384   C     0.47916   0.52741   0.15344   0.00000  Uiso   1.00
C385   C     0.53140   0.53285   0.13825   0.00000  Uiso   1.00
C386   C     0.48082   0.59188   0.32296   0.00000  Uiso   1.00
C387   C     0.46530   0.55162   0.34621   0.00000  Uiso   1.00
C388   C     0.51121   0.56813   0.41919   0.00000  Uiso   1.00
C389   C     0.41902   0.64727   0.25603   0.00000  Uiso   1.00
C390   C     0.35154   0.65360   0.22304   0.00000  Uiso   1.00
C391   C     0.34541   0.71675   0.23970   0.00000  Uiso   1.00
H392   H     0.59305   0.72648   0.37115   0.00000  Uiso   1.00
H393   H     0.64573   0.68146   0.28819   0.00000  Uiso   1.00
H394   H     0.63187   0.70567   0.48094   0.00000  Uiso   1.00
H395   H     0.51812   0.80763   0.35778   0.00000  Uiso   1.00
H396   H     0.67801   0.60737   0.17508   0.00000  Uiso   1.00
H397   H     0.64877   0.65843   0.58151   0.00000  Uiso   1.00
H398   H     0.40892   0.87344   0.32182   0.00000  Uiso   1.00
H399   H     0.39166   0.54025   0.20826   0.00000  Uiso   1.00
H400   H     0.43329   0.48501   0.11635   0.00000  Uiso   1.00
H401   H     0.41944   0.50922   0.30911   0.00000  Uiso   1.00
H402   H     0.30569   0.61118   0.18595   0.00000  Uiso   1.00
H403   H     0.50560   0.44792   0.03562   0.00000  Uiso   1.00
H404   H     0.47636   0.49899   0.44205   0.00000  Uiso   1.00
H405   H     0.23651   0.71399   0.18235   0.00000  Uiso   1.00
O406   O     0.62284   0.49466   0.04784   0.00000  Uiso   1.00
O407   O     0.58447   0.56166   0.58106   0.00000  Uiso   1.00
O408   O     0.26979   0.84374   0.24035   0.00000  Uiso   1.00
N409   N     0.63171   0.57743   0.15486   0.00000  Uiso   1.00
N410   N     0.60439   0.62516   0.53485   0.00000  Uiso   1.00
N411   N     0.38014   0.82618   0.29207   0.00000  Uiso   1.00
N412   N     0.53894   0.49164   0.07982   0.00000  Uiso   1.00
N413   N     0.51161   0.53937   0.45980   0.00000  Uiso   1.00
N414   N     0.28737   0.74038   0.21703   0.00000  Uiso   1.00
C415   C     0.10908   0.16797   0.89179   0.00000  Uiso   1.00
C416   C     0.11870   0.11522   0.91396   0.00000  Uiso   1.00
C417   C     0.17867   0.11839   0.97330   0.00000  Uiso   1.00
C418   C     0.17705   0.06508   0.98433   0.00000  Uiso   1.00
C419   C     0.20106   0.99145   0.02584   0.00000  Uiso   1.00
C420   C     0.08970   0.13385   0.81135   0.00000  Uiso   1.00
C421   C     0.12529   0.15269   0.78443   0.00000  Uiso   1.00
C422   C     0.09925   0.11506   0.70908   0.00000  Uiso   1.00
C423   C     0.07820   0.07039   0.59128   0.00000  Uiso   1.00
C424   C     0.04378   0.18607   0.89115   0.00000  Uiso   1.00
C425   C     0.04074   0.24882   0.93130   0.00000  Uiso   1.00
C426   C     0.97604   0.25515   0.92312   0.00000  Uiso   1.00
C427   C     0.88370   0.29156   0.92921   0.00000  Uiso   1.00
C428   C     0.99957   0.06764   0.80585   0.00000  Uiso   1.00
C429   C     0.05922   0.06073   0.86728   0.00000  Uiso   1.00
C430   C     0.05751   0.00739   0.87823   0.00000  Uiso   1.00
C431   C     0.11746   0.01048   0.93757   0.00000  Uiso   1.00
C432   C     0.03022   0.07936   0.76468   0.00000  Uiso   1.00
C433   C     0.00413   0.04169   0.68935   0.00000  Uiso   1.00
C434   C     0.03966   0.06047   0.66232   0.00000  Uiso   1.00
C435   C     0.98430   0.13158   0.84447   0.00000  Uiso   1.00
C436   C     0.91959   0.13782   0.83622   0.00000  Uiso   1.00
C437   C     0.91645   0.20056   0.87635   0.00000  Uiso   1.00
H438   H     0.15539   0.21039   0.92812   0.00000  Uiso   1.00
H439   H     0.22469   0.16057   0.00941   0.00000  Uiso   1.00
H440   H     0.17131   0.19487   0.82056   0.00000  Uiso   1.00
H441   H     0.08679   0.29098   0.96741   0.00000  Uiso   1.00
H442   H     0.27531   0.08130   0.07893   0.00000  Uiso   1.00
H443   H     0.16274   0.15363   0.68073   0.00000  Uiso   1.00
H444   H     0.98450   0.35629   0.99039   0.00000  Uiso   1.00
H445   H     0.95326   0.02521   0.76951   0.00000  Uiso   1.00
H446   H     0.01147   0.96523   0.84209   0.00000  Uiso   1.00
H447   H     0.95809   0.99953   0.65324   0.00000  Uiso   1.00
H448   H     0.87357   0.09563   0.80010   0.00000  Uiso   1.00
H449   H     0.10226   0.92274   0.94313   0.00000  Uiso   1.00
H450   H     0.98968   0.99508   0.54493   0.00000  Uiso   1.00
H451   H     0.81144   0.19774   0.85459   0.00000  Uiso   1.00
O452   O     0.23074   0.96589   0.06163   0.00000  Uiso   1.00
O453   O     0.08304   0.06080   0.53920   0.00000  Uiso   1.00
O454   O     0.84919   0.32669   0.94548   0.00000  Uiso   1.00
N455   N     0.22659   0.05222   0.03702   0.00000  Uiso   1.00
N456   N     0.12135   0.11984   0.66472   0.00000  Uiso   1.00
N457   N     0.95470   0.30932   0.95422   0.00000  Uiso   1.00
N458   N     0.13347   0.96690   0.96394   0.00000  Uiso   1.00
N459   N     0.02823   0.03453   0.59165   0.00000  Uiso   1.00
N460   N     0.86158   0.22400   0.88115   0.00000  Uiso   1.00
C461   C     0.93100   0.21459   0.36383   0.00000  Uiso   1.00
C462   C     0.98672   0.23211   0.34943   0.00000  Uiso   1.00
C463   C     0.05889   0.24786   0.39626   0.00000  Uiso   1.00
C464   C     0.10106   0.26244   0.37310   0.00000  Uiso   1.00
C465   C     0.19201   0.28985   0.36104   0.00000  Uiso   1.00
C466   C     0.88716   0.26299   0.35918   0.00000  Uiso   1.00
C467   C     0.87561   0.30470   0.41421   0.00000  Uiso   1.00
C468   C     0.83396   0.34525   0.39925   0.00000  Uiso   1.00
C469   C     0.77028   0.42057   0.40231   0.00000  Uiso   1.00
C470   C     0.88249   0.14721   0.29761   0.00000  Uiso   1.00
C471   C     0.86699   0.09157   0.30087   0.00000  Uiso   1.00
C472   C     0.82139   0.03465   0.23407   0.00000  Uiso   1.00
C473   C     0.75046   0.93020   0.14154   0.00000  Uiso   1.00
C474   C     0.87756   0.21245   0.23940   0.00000  Uiso   1.00
C475   C     0.95769   0.23095   0.28185   0.00000  Uiso   1.00
C476   C     0.99976   0.24550   0.25860   0.00000  Uiso   1.00
C477   C     0.07198   0.26127   0.30539   0.00000  Uiso   1.00
C478   C     0.85813   0.26183   0.29160   0.00000  Uiso   1.00
C479   C     0.81648   0.30233   0.27655   0.00000  Uiso   1.00
C480   C     0.80488   0.34409   0.33154   0.00000  Uiso   1.00
C481   C     0.85346   0.14604   0.23003   0.00000  Uiso   1.00
C482   C     0.80787   0.08920   0.16321   0.00000  Uiso   1.00
C483   C     0.79231   0.03348   0.16637   0.00000  Uiso   1.00
H484   H     0.95359   0.21550   0.41645   0.00000  Uiso   1.00
H485   H     0.08134   0.24877   0.44857   0.00000  Uiso   1.00
H486   H     0.89808   0.30558   0.46650   0.00000  Uiso   1.00
H487   H     0.88946   0.09249   0.35318   0.00000  Uiso   1.00
H488   H     0.21016   0.28516   0.45438   0.00000  Uiso   1.00
H489   H     0.82373   0.40494   0.49220   0.00000  Uiso   1.00
H490   H     0.80556   0.95559   0.25324   0.00000  Uiso   1.00
H491   H     0.85495   0.21154   0.18678   0.00000  Uiso   1.00
H492   H     0.97729   0.24459   0.20630   0.00000  Uiso   1.00
H493   H     0.79402   0.30141   0.22424   0.00000  Uiso   1.00
H494   H     0.78541   0.08832   0.11092   0.00000  Uiso   1.00
H495   H     0.12571   0.28178   0.25775   0.00000  Uiso   1.00
H496   H     0.73927   0.40156   0.29557   0.00000  Uiso   1.00
H497   H     0.72111   0.95221   0.05661   0.00000  Uiso   1.00
O498   O     0.25019   0.30531   0.37306   0.00000  Uiso   1.00
O499   O     0.74319   0.46244   0.42267   0.00000  Uiso   1.00
O500   O     0.71936   0.87291   0.10916   0.00000  Uiso   1.00
N501   N     0.17350   0.27982   0.40542   0.00000  Uiso   1.00
N502   N     0.81221   0.39181   0.44078   0.00000  Uiso   1.00
N503   N     0.79521   0.97171   0.21738   0.00000  Uiso   1.00
N504   N     0.12805   0.27800   0.29961   0.00000  Uiso   1.00
N505   N     0.76677   0.38999   0.33498   0.00000  Uiso   1.00
N506   N     0.74977   0.96989   0.11157   0.00000  Uiso   1.00
C507   C     0.07377   0.64352   0.85322   0.00000  Uiso   1.00
C508   C     0.05672   0.70563   0.89316   0.00000  Uiso   1.00
C509   C     0.10411   0.76774   0.94498   0.00000  Uiso   1.00
C510   C     0.07819   0.81817   0.97520   0.00000  Uiso   1.00
C511   C     0.06249   0.91632   0.04043   0.00000  Uiso   1.00
C512   C     0.05155   0.59331   0.86945   0.00000  Uiso   1.00
C513   C     0.09459   0.56099   0.90133   0.00000  Uiso   1.00
C514   C     0.06431   0.51686   0.91158   0.00000  Uiso   1.00
C515   C     0.04057   0.44062   0.93996   0.00000  Uiso   1.00
C516   C     0.02375   0.61730   0.77067   0.00000  Uiso   1.00
C517   C     0.04341   0.60513   0.71949   0.00000  Uiso   1.00
C518   C     0.98972   0.58119   0.64657   0.00000  Uiso   1.00
C519   C     0.92281   0.54219   0.52157   0.00000  Uiso   1.00
C520   C     0.94347   0.62264   0.81474   0.00000  Uiso   1.00
C521   C     0.98595   0.69428   0.87226   0.00000  Uiso   1.00
C522   C     0.95995   0.74463   0.90241   0.00000  Uiso   1.00
C523   C     0.00729   0.80681   0.95426   0.00000  Uiso   1.00
C524   C     0.98078   0.58197   0.84855   0.00000  Uiso   1.00
C525   C     0.95043   0.53788   0.85875   0.00000  Uiso   1.00
C526   C     0.99341   0.50550   0.89064   0.00000  Uiso   1.00
C527   C     0.95298   0.60596   0.74977   0.00000  Uiso   1.00
C528   C     0.89925   0.58203   0.67691   0.00000  Uiso   1.00
C529   C     0.91882   0.56982   0.62563   0.00000  Uiso   1.00
H530   H     0.12887   0.65235   0.86949   0.00000  Uiso   1.00
H531   H     0.15887   0.77649   0.96115   0.00000  Uiso   1.00
H532   H     0.14935   0.56977   0.91750   0.00000  Uiso   1.00
H533   H     0.09818   0.61391   0.73568   0.00000  Uiso   1.00
H534   H     0.16093   0.90913   0.05357   0.00000  Uiso   1.00
H535   H     0.14085   0.47322   0.96150   0.00000  Uiso   1.00
H536   H     0.03294   0.56630   0.57811   0.00000  Uiso   1.00
H537   H     0.88837   0.61380   0.79846   0.00000  Uiso   1.00
H538   H     0.90518   0.73584   0.88622   0.00000  Uiso   1.00
H539   H     0.89566   0.52911   0.84257   0.00000  Uiso   1.00
H540   H     0.84449   0.57326   0.66076   0.00000  Uiso   1.00
H541   H     0.95503   0.87613   0.99276   0.00000  Uiso   1.00
H542   H     0.93495   0.44022   0.90069   0.00000  Uiso   1.00
H543   H     0.82704   0.53330   0.51730   0.00000  Uiso   1.00
O544   O     0.07338   0.97360   0.08219   0.00000  Uiso   1.00
O545   O     0.04704   0.40170   0.96139   0.00000  Uiso   1.00
O546   O     0.90546   0.52382   0.45839   0.00000  Uiso   1.00
N547   N     0.11016   0.88461   0.02720   0.00000  Uiso   1.00
N548   N     0.09139   0.47708   0.94114   0.00000  Uiso   1.00
N549   N     0.99051   0.56408   0.58269   0.00000  Uiso   1.00
N550   N     0.99937   0.86686   0.99448   0.00000  Uiso   1.00
N551   N     0.98060   0.45932   0.90841   0.00000  Uiso   1.00
N552   N     0.87971   0.54633   0.54997   0.00000  Uiso   1.00
