data_job_01658
_audit_creation_date              2018-12-19
_audit_creation_method            'Materials Studio'
_symmetry_space_group_name_H-M    'P1'
_symmetry_Int_Tables_number       1
_symmetry_cell_setting            triclinic
loop_
_symmetry_equiv_pos_as_xyz
  x,y,z
_cell_length_a                    12.4117
_cell_length_b                    29.4952
_cell_length_c                    12.1409
_cell_angle_alpha                 90.0000
_cell_angle_beta                  90.0000
_cell_angle_gamma                 90.0000
loop_
_atom_site_label
_atom_site_type_symbol
_atom_site_fract_x
_atom_site_fract_y
_atom_site_fract_z
_atom_site_U_iso_or_equiv
_atom_site_adp_type
_atom_site_occupancy
C1     C     0.61805   0.61965   0.24157   0.00000  Uiso   1.00
C2     C     0.53933   0.65892   0.22763   0.00000  Uiso   1.00
C3     C     0.54500   0.69227   0.14721   0.00000  Uiso   1.00
C4     C     0.46527   0.72529   0.14837   0.00000  Uiso   1.00
C5     C     0.35560   0.78634   0.11478   0.00000  Uiso   1.00
C6     C     0.66056   0.62300   0.35913   0.00000  Uiso   1.00
C7     C     0.76817   0.62614   0.38925   0.00000  Uiso   1.00
C8     C     0.79049   0.62891   0.50111   0.00000  Uiso   1.00
C9     C     0.86904   0.63417   0.67167   0.00000  Uiso   1.00
C10    C     0.55031   0.57655   0.23737   0.00000  Uiso   1.00
C11    C     0.56522   0.54062   0.16515   0.00000  Uiso   1.00
C12    C     0.49473   0.50427   0.17451   0.00000  Uiso   1.00
C13    C     0.40210   0.43740   0.15603   0.00000  Uiso   1.00
C14    C     0.46636   0.61897   0.38665   0.00000  Uiso   1.00
C15    C     0.45694   0.65856   0.30644   0.00000  Uiso   1.00
C16    C     0.37717   0.69153   0.30772   0.00000  Uiso   1.00
C17    C     0.38273   0.72492   0.22731   0.00000  Uiso   1.00
C18    C     0.57818   0.62264   0.43793   0.00000  Uiso   1.00
C19    C     0.60034   0.62540   0.54977   0.00000  Uiso   1.00
C20    C     0.70795   0.62854   0.58006   0.00000  Uiso   1.00
C21    C     0.46791   0.57618   0.31617   0.00000  Uiso   1.00
C22    C     0.39739   0.53988   0.32566   0.00000  Uiso   1.00
C23    C     0.41220   0.50391   0.25346   0.00000  Uiso   1.00
H24    H     0.68219   0.61993   0.18022   0.00000  Uiso   1.00
H25    H     0.60878   0.69255   0.08624   0.00000  Uiso   1.00
H26    H     0.83191   0.62642   0.32825   0.00000  Uiso   1.00
H27    H     0.62899   0.54092   0.10418   0.00000  Uiso   1.00
H28    H     0.49107   0.77290   0.01683   0.00000  Uiso   1.00
H29    H     0.96155   0.63346   0.52712   0.00000  Uiso   1.00
H30    H     0.53367   0.45316   0.05461   0.00000  Uiso   1.00
H31    H     0.40221   0.61868   0.44800   0.00000  Uiso   1.00
H32    H     0.31343   0.69123   0.36872   0.00000  Uiso   1.00
H33    H     0.53656   0.62511   0.61073   0.00000  Uiso   1.00
H34    H     0.33365   0.53961   0.38665   0.00000  Uiso   1.00
H35    H     0.25136   0.77184   0.24610   0.00000  Uiso   1.00
H36    H     0.72184   0.63239   0.75639   0.00000  Uiso   1.00
H37    H     0.29395   0.45209   0.28388   0.00000  Uiso   1.00
O38    O     0.31788   0.82013   0.07450   0.00000  Uiso   1.00
O39    O     0.93514   0.63717   0.74398   0.00000  Uiso   1.00
O40    O     0.37376   0.40062   0.12405   0.00000  Uiso   1.00
N41    N     0.44683   0.76269   0.08165   0.00000  Uiso   1.00
N42    N     0.88670   0.63233   0.55875   0.00000  Uiso   1.00
N43    N     0.48668   0.46375   0.11701   0.00000  Uiso   1.00
N44    N     0.31784   0.76212   0.20502   0.00000  Uiso   1.00
N45    N     0.75771   0.63175   0.68211   0.00000  Uiso   1.00
N46    N     0.35769   0.46318   0.24038   0.00000  Uiso   1.00
C47    C     0.88195   0.38035   0.74157   0.00000  Uiso   1.00
C48    C     0.96067   0.34108   0.72763   0.00000  Uiso   1.00
C49    C     0.95500   0.30773   0.64721   0.00000  Uiso   1.00
C50    C     0.03473   0.27471   0.64837   0.00000  Uiso   1.00
C51    C     0.14440   0.21366   0.61478   0.00000  Uiso   1.00
C52    C     0.83944   0.37700   0.85913   0.00000  Uiso   1.00
C53    C     0.73183   0.37386   0.88925   0.00000  Uiso   1.00
C54    C     0.70951   0.37109   0.00111   0.00000  Uiso   1.00
C55    C     0.63096   0.36583   0.17167   0.00000  Uiso   1.00
C56    C     0.94969   0.42345   0.73737   0.00000  Uiso   1.00
C57    C     0.93478   0.45938   0.66515   0.00000  Uiso   1.00
C58    C     0.00527   0.49573   0.67451   0.00000  Uiso   1.00
C59    C     0.09790   0.56260   0.65603   0.00000  Uiso   1.00
C60    C     0.03364   0.38103   0.88665   0.00000  Uiso   1.00
C61    C     0.04306   0.34144   0.80644   0.00000  Uiso   1.00
C62    C     0.12283   0.30847   0.80772   0.00000  Uiso   1.00
C63    C     0.11727   0.27508   0.72731   0.00000  Uiso   1.00
C64    C     0.92182   0.37736   0.93793   0.00000  Uiso   1.00
C65    C     0.89966   0.37460   0.04977   0.00000  Uiso   1.00
C66    C     0.79205   0.37146   0.08006   0.00000  Uiso   1.00
C67    C     0.03209   0.42382   0.81617   0.00000  Uiso   1.00
C68    C     0.10261   0.46012   0.82566   0.00000  Uiso   1.00
C69    C     0.08780   0.49609   0.75346   0.00000  Uiso   1.00
H70    H     0.81781   0.38007   0.68022   0.00000  Uiso   1.00
H71    H     0.89122   0.30745   0.58624   0.00000  Uiso   1.00
H72    H     0.66809   0.37358   0.82825   0.00000  Uiso   1.00
H73    H     0.87101   0.45908   0.60418   0.00000  Uiso   1.00
H74    H     0.00893   0.22710   0.51683   0.00000  Uiso   1.00
H75    H     0.53845   0.36654   0.02712   0.00000  Uiso   1.00
H76    H     0.96633   0.54684   0.55461   0.00000  Uiso   1.00
H77    H     0.09779   0.38132   0.94800   0.00000  Uiso   1.00
H78    H     0.18657   0.30877   0.86872   0.00000  Uiso   1.00
H79    H     0.96344   0.37489   0.11073   0.00000  Uiso   1.00
H80    H     0.16635   0.46039   0.88665   0.00000  Uiso   1.00
H81    H     0.24864   0.22816   0.74610   0.00000  Uiso   1.00
H82    H     0.77816   0.36761   0.25639   0.00000  Uiso   1.00
H83    H     0.20605   0.54791   0.78388   0.00000  Uiso   1.00
O84    O     0.18212   0.17987   0.57450   0.00000  Uiso   1.00
O85    O     0.56486   0.36283   0.24398   0.00000  Uiso   1.00
O86    O     0.12624   0.59938   0.62405   0.00000  Uiso   1.00
N87    N     0.05317   0.23731   0.58165   0.00000  Uiso   1.00
N88    N     0.61330   0.36767   0.05875   0.00000  Uiso   1.00
N89    N     0.01332   0.53625   0.61701   0.00000  Uiso   1.00
N90    N     0.18216   0.23788   0.70502   0.00000  Uiso   1.00
N91    N     0.74229   0.36825   0.18211   0.00000  Uiso   1.00
N92    N     0.14231   0.53682   0.74038   0.00000  Uiso   1.00
C93    C     0.38195   0.11965   0.25843   0.00000  Uiso   1.00
C94    C     0.46067   0.15892   0.27237   0.00000  Uiso   1.00
C95    C     0.45500   0.19227   0.35279   0.00000  Uiso   1.00
C96    C     0.53473   0.22529   0.35163   0.00000  Uiso   1.00
C97    C     0.64440   0.28634   0.38522   0.00000  Uiso   1.00
C98    C     0.33944   0.12300   0.14087   0.00000  Uiso   1.00
C99    C     0.23183   0.12614   0.11075   0.00000  Uiso   1.00
C100   C     0.20951   0.12891   0.99889   0.00000  Uiso   1.00
C101   C     0.13096   0.13417   0.82833   0.00000  Uiso   1.00
C102   C     0.44969   0.07655   0.26263   0.00000  Uiso   1.00
C103   C     0.43478   0.04062   0.33485   0.00000  Uiso   1.00
C104   C     0.50527   0.00427   0.32549   0.00000  Uiso   1.00
C105   C     0.59790   0.93740   0.34397   0.00000  Uiso   1.00
C106   C     0.53364   0.11897   0.11335   0.00000  Uiso   1.00
C107   C     0.54306   0.15856   0.19356   0.00000  Uiso   1.00
C108   C     0.62283   0.19153   0.19228   0.00000  Uiso   1.00
C109   C     0.61727   0.22492   0.27269   0.00000  Uiso   1.00
C110   C     0.42182   0.12264   0.06207   0.00000  Uiso   1.00
C111   C     0.39966   0.12540   0.95023   0.00000  Uiso   1.00
C112   C     0.29205   0.12854   0.91994   0.00000  Uiso   1.00
C113   C     0.53209   0.07618   0.18383   0.00000  Uiso   1.00
C114   C     0.60261   0.03988   0.17434   0.00000  Uiso   1.00
C115   C     0.58780   0.00391   0.24654   0.00000  Uiso   1.00
H116   H     0.31781   0.11993   0.31978   0.00000  Uiso   1.00
H117   H     0.39122   0.19255   0.41376   0.00000  Uiso   1.00
H118   H     0.16809   0.12642   0.17175   0.00000  Uiso   1.00
H119   H     0.37101   0.04092   0.39582   0.00000  Uiso   1.00
H120   H     0.50893   0.27290   0.48317   0.00000  Uiso   1.00
H121   H     0.03845   0.13346   0.97288   0.00000  Uiso   1.00
H122   H     0.46633   0.95316   0.44539   0.00000  Uiso   1.00
H123   H     0.59779   0.11868   0.05200   0.00000  Uiso   1.00
H124   H     0.68657   0.19123   0.13128   0.00000  Uiso   1.00
H125   H     0.46344   0.12511   0.88927   0.00000  Uiso   1.00
H126   H     0.66635   0.03961   0.11335   0.00000  Uiso   1.00
H127   H     0.74864   0.27184   0.25390   0.00000  Uiso   1.00
H128   H     0.27816   0.13239   0.74361   0.00000  Uiso   1.00
H129   H     0.70605   0.95209   0.21612   0.00000  Uiso   1.00
O130   O     0.68212   0.32013   0.42550   0.00000  Uiso   1.00
O131   O     0.06486   0.13717   0.75602   0.00000  Uiso   1.00
O132   O     0.62624   0.90062   0.37595   0.00000  Uiso   1.00
N133   N     0.55317   0.26269   0.41835   0.00000  Uiso   1.00
N134   N     0.11330   0.13233   0.94125   0.00000  Uiso   1.00
N135   N     0.51332   0.96375   0.38299   0.00000  Uiso   1.00
N136   N     0.68216   0.26212   0.29498   0.00000  Uiso   1.00
N137   N     0.24229   0.13175   0.81789   0.00000  Uiso   1.00
N138   N     0.64231   0.96318   0.25962   0.00000  Uiso   1.00
C139   C     0.11805   0.88035   0.75843   0.00000  Uiso   1.00
C140   C     0.03933   0.84108   0.77237   0.00000  Uiso   1.00
C141   C     0.04500   0.80773   0.85279   0.00000  Uiso   1.00
C142   C     0.96527   0.77471   0.85163   0.00000  Uiso   1.00
C143   C     0.85560   0.71366   0.88522   0.00000  Uiso   1.00
C144   C     0.16056   0.87700   0.64087   0.00000  Uiso   1.00
C145   C     0.26817   0.87386   0.61075   0.00000  Uiso   1.00
C146   C     0.29049   0.87109   0.49889   0.00000  Uiso   1.00
C147   C     0.36904   0.86583   0.32833   0.00000  Uiso   1.00
C148   C     0.05031   0.92345   0.76263   0.00000  Uiso   1.00
C149   C     0.06522   0.95938   0.83485   0.00000  Uiso   1.00
C150   C     0.99473   0.99573   0.82549   0.00000  Uiso   1.00
C151   C     0.90210   0.06260   0.84397   0.00000  Uiso   1.00
C152   C     0.96636   0.88103   0.61335   0.00000  Uiso   1.00
C153   C     0.95694   0.84144   0.69356   0.00000  Uiso   1.00
C154   C     0.87717   0.80847   0.69228   0.00000  Uiso   1.00
C155   C     0.88273   0.77508   0.77269   0.00000  Uiso   1.00
C156   C     0.07818   0.87736   0.56207   0.00000  Uiso   1.00
C157   C     0.10034   0.87460   0.45023   0.00000  Uiso   1.00
C158   C     0.20795   0.87146   0.41994   0.00000  Uiso   1.00
C159   C     0.96791   0.92382   0.68383   0.00000  Uiso   1.00
C160   C     0.89739   0.96012   0.67434   0.00000  Uiso   1.00
C161   C     0.91220   0.99609   0.74654   0.00000  Uiso   1.00
H162   H     0.18219   0.88007   0.81978   0.00000  Uiso   1.00
H163   H     0.10878   0.80745   0.91376   0.00000  Uiso   1.00
H164   H     0.33191   0.87358   0.67175   0.00000  Uiso   1.00
H165   H     0.12899   0.95908   0.89582   0.00000  Uiso   1.00
H166   H     0.99107   0.72710   0.98317   0.00000  Uiso   1.00
H167   H     0.46155   0.86654   0.47288   0.00000  Uiso   1.00
H168   H     0.03367   0.04684   0.94539   0.00000  Uiso   1.00
H169   H     0.90221   0.88132   0.55200   0.00000  Uiso   1.00
H170   H     0.81343   0.80877   0.63128   0.00000  Uiso   1.00
H171   H     0.03656   0.87489   0.38927   0.00000  Uiso   1.00
H172   H     0.83365   0.96039   0.61335   0.00000  Uiso   1.00
H173   H     0.75136   0.72816   0.75390   0.00000  Uiso   1.00
H174   H     0.22184   0.86761   0.24361   0.00000  Uiso   1.00
H175   H     0.79395   0.04791   0.71612   0.00000  Uiso   1.00
O176   O     0.81788   0.67987   0.92550   0.00000  Uiso   1.00
O177   O     0.43514   0.86283   0.25602   0.00000  Uiso   1.00
O178   O     0.87376   0.09938   0.87595   0.00000  Uiso   1.00
N179   N     0.94683   0.73731   0.91835   0.00000  Uiso   1.00
N180   N     0.38670   0.86767   0.44125   0.00000  Uiso   1.00
N181   N     0.98668   0.03625   0.88299   0.00000  Uiso   1.00
N182   N     0.81784   0.73788   0.79498   0.00000  Uiso   1.00
N183   N     0.25771   0.86825   0.31789   0.00000  Uiso   1.00
N184   N     0.85769   0.03682   0.75962   0.00000  Uiso   1.00
C185   C     0.38195   0.38035   0.75843   0.00000  Uiso   1.00
C186   C     0.46067   0.34108   0.77237   0.00000  Uiso   1.00
C187   C     0.45500   0.30773   0.85279   0.00000  Uiso   1.00
C188   C     0.53473   0.27471   0.85163   0.00000  Uiso   1.00
C189   C     0.64440   0.21366   0.88522   0.00000  Uiso   1.00
C190   C     0.33944   0.37700   0.64087   0.00000  Uiso   1.00
C191   C     0.23183   0.37386   0.61075   0.00000  Uiso   1.00
C192   C     0.20951   0.37109   0.49889   0.00000  Uiso   1.00
C193   C     0.13096   0.36583   0.32833   0.00000  Uiso   1.00
C194   C     0.44969   0.42345   0.76263   0.00000  Uiso   1.00
C195   C     0.43478   0.45938   0.83485   0.00000  Uiso   1.00
C196   C     0.50527   0.49573   0.82549   0.00000  Uiso   1.00
C197   C     0.59790   0.56260   0.84397   0.00000  Uiso   1.00
C198   C     0.53364   0.38103   0.61335   0.00000  Uiso   1.00
C199   C     0.54306   0.34144   0.69356   0.00000  Uiso   1.00
C200   C     0.62283   0.30847   0.69228   0.00000  Uiso   1.00
C201   C     0.61727   0.27508   0.77269   0.00000  Uiso   1.00
C202   C     0.42182   0.37736   0.56207   0.00000  Uiso   1.00
C203   C     0.39966   0.37460   0.45023   0.00000  Uiso   1.00
C204   C     0.29205   0.37146   0.41994   0.00000  Uiso   1.00
C205   C     0.53209   0.42382   0.68383   0.00000  Uiso   1.00
C206   C     0.60261   0.46012   0.67434   0.00000  Uiso   1.00
C207   C     0.58780   0.49609   0.74654   0.00000  Uiso   1.00
H208   H     0.31781   0.38007   0.81978   0.00000  Uiso   1.00
H209   H     0.39122   0.30745   0.91376   0.00000  Uiso   1.00
H210   H     0.16809   0.37358   0.67175   0.00000  Uiso   1.00
H211   H     0.37101   0.45908   0.89582   0.00000  Uiso   1.00
H212   H     0.50893   0.22710   0.98317   0.00000  Uiso   1.00
H213   H     0.03845   0.36654   0.47288   0.00000  Uiso   1.00
H214   H     0.46633   0.54684   0.94539   0.00000  Uiso   1.00
H215   H     0.59779   0.38132   0.55200   0.00000  Uiso   1.00
H216   H     0.68657   0.30877   0.63128   0.00000  Uiso   1.00
H217   H     0.46344   0.37489   0.38927   0.00000  Uiso   1.00
H218   H     0.66635   0.46039   0.61335   0.00000  Uiso   1.00
H219   H     0.74864   0.22816   0.75390   0.00000  Uiso   1.00
H220   H     0.27816   0.36761   0.24361   0.00000  Uiso   1.00
H221   H     0.70605   0.54791   0.71612   0.00000  Uiso   1.00
O222   O     0.68212   0.17987   0.92550   0.00000  Uiso   1.00
O223   O     0.06486   0.36283   0.25602   0.00000  Uiso   1.00
O224   O     0.62624   0.59938   0.87595   0.00000  Uiso   1.00
N225   N     0.55317   0.23731   0.91835   0.00000  Uiso   1.00
N226   N     0.11330   0.36767   0.44125   0.00000  Uiso   1.00
N227   N     0.51332   0.53625   0.88299   0.00000  Uiso   1.00
N228   N     0.68216   0.23788   0.79498   0.00000  Uiso   1.00
N229   N     0.24229   0.36825   0.31789   0.00000  Uiso   1.00
N230   N     0.64231   0.53682   0.75962   0.00000  Uiso   1.00
C231   C     0.11805   0.61965   0.25843   0.00000  Uiso   1.00
C232   C     0.03933   0.65892   0.27237   0.00000  Uiso   1.00
C233   C     0.04500   0.69227   0.35279   0.00000  Uiso   1.00
C234   C     0.96527   0.72529   0.35163   0.00000  Uiso   1.00
C235   C     0.85560   0.78634   0.38522   0.00000  Uiso   1.00
C236   C     0.16056   0.62300   0.14087   0.00000  Uiso   1.00
C237   C     0.26817   0.62614   0.11075   0.00000  Uiso   1.00
C238   C     0.29049   0.62891   0.99889   0.00000  Uiso   1.00
C239   C     0.36904   0.63417   0.82833   0.00000  Uiso   1.00
C240   C     0.05031   0.57655   0.26263   0.00000  Uiso   1.00
C241   C     0.06522   0.54062   0.33485   0.00000  Uiso   1.00
C242   C     0.99473   0.50427   0.32549   0.00000  Uiso   1.00
C243   C     0.90210   0.43740   0.34397   0.00000  Uiso   1.00
C244   C     0.96636   0.61897   0.11335   0.00000  Uiso   1.00
C245   C     0.95694   0.65856   0.19356   0.00000  Uiso   1.00
C246   C     0.87717   0.69153   0.19228   0.00000  Uiso   1.00
C247   C     0.88273   0.72492   0.27269   0.00000  Uiso   1.00
C248   C     0.07818   0.62264   0.06207   0.00000  Uiso   1.00
C249   C     0.10034   0.62540   0.95023   0.00000  Uiso   1.00
C250   C     0.20795   0.62854   0.91994   0.00000  Uiso   1.00
C251   C     0.96791   0.57618   0.18383   0.00000  Uiso   1.00
C252   C     0.89739   0.53988   0.17434   0.00000  Uiso   1.00
C253   C     0.91220   0.50391   0.24654   0.00000  Uiso   1.00
H254   H     0.18219   0.61993   0.31978   0.00000  Uiso   1.00
H255   H     0.10878   0.69255   0.41376   0.00000  Uiso   1.00
H256   H     0.33191   0.62642   0.17175   0.00000  Uiso   1.00
H257   H     0.12899   0.54092   0.39582   0.00000  Uiso   1.00
H258   H     0.99107   0.77290   0.48317   0.00000  Uiso   1.00
H259   H     0.46155   0.63346   0.97288   0.00000  Uiso   1.00
H260   H     0.03367   0.45316   0.44539   0.00000  Uiso   1.00
H261   H     0.90221   0.61868   0.05200   0.00000  Uiso   1.00
H262   H     0.81343   0.69123   0.13128   0.00000  Uiso   1.00
H263   H     0.03656   0.62511   0.88927   0.00000  Uiso   1.00
H264   H     0.83365   0.53961   0.11335   0.00000  Uiso   1.00
H265   H     0.75136   0.77184   0.25390   0.00000  Uiso   1.00
H266   H     0.22184   0.63239   0.74361   0.00000  Uiso   1.00
H267   H     0.79395   0.45209   0.21612   0.00000  Uiso   1.00
O268   O     0.81788   0.82013   0.42550   0.00000  Uiso   1.00
O269   O     0.43514   0.63717   0.75602   0.00000  Uiso   1.00
O270   O     0.87376   0.40062   0.37595   0.00000  Uiso   1.00
N271   N     0.94683   0.76269   0.41835   0.00000  Uiso   1.00
N272   N     0.38670   0.63233   0.94125   0.00000  Uiso   1.00
N273   N     0.98668   0.46375   0.38299   0.00000  Uiso   1.00
N274   N     0.81784   0.76212   0.29498   0.00000  Uiso   1.00
N275   N     0.25771   0.63175   0.81789   0.00000  Uiso   1.00
N276   N     0.85769   0.46318   0.25962   0.00000  Uiso   1.00
C277   C     0.61805   0.88035   0.74157   0.00000  Uiso   1.00
C278   C     0.53933   0.84108   0.72763   0.00000  Uiso   1.00
C279   C     0.54500   0.80773   0.64721   0.00000  Uiso   1.00
C280   C     0.46527   0.77471   0.64837   0.00000  Uiso   1.00
C281   C     0.35560   0.71366   0.61478   0.00000  Uiso   1.00
C282   C     0.66056   0.87700   0.85913   0.00000  Uiso   1.00
C283   C     0.76817   0.87386   0.88925   0.00000  Uiso   1.00
C284   C     0.79049   0.87109   0.00111   0.00000  Uiso   1.00
C285   C     0.86904   0.86583   0.17167   0.00000  Uiso   1.00
C286   C     0.55031   0.92345   0.73737   0.00000  Uiso   1.00
C287   C     0.56522   0.95938   0.66515   0.00000  Uiso   1.00
C288   C     0.49473   0.99573   0.67451   0.00000  Uiso   1.00
C289   C     0.40210   0.06260   0.65603   0.00000  Uiso   1.00
C290   C     0.46636   0.88103   0.88665   0.00000  Uiso   1.00
C291   C     0.45694   0.84144   0.80644   0.00000  Uiso   1.00
C292   C     0.37717   0.80847   0.80772   0.00000  Uiso   1.00
C293   C     0.38273   0.77508   0.72731   0.00000  Uiso   1.00
C294   C     0.57818   0.87736   0.93793   0.00000  Uiso   1.00
C295   C     0.60034   0.87460   0.04977   0.00000  Uiso   1.00
C296   C     0.70795   0.87146   0.08006   0.00000  Uiso   1.00
C297   C     0.46791   0.92382   0.81617   0.00000  Uiso   1.00
C298   C     0.39739   0.96012   0.82566   0.00000  Uiso   1.00
C299   C     0.41220   0.99609   0.75346   0.00000  Uiso   1.00
H300   H     0.68219   0.88007   0.68022   0.00000  Uiso   1.00
H301   H     0.60878   0.80745   0.58624   0.00000  Uiso   1.00
H302   H     0.83191   0.87358   0.82825   0.00000  Uiso   1.00
H303   H     0.62899   0.95908   0.60418   0.00000  Uiso   1.00
H304   H     0.49107   0.72710   0.51683   0.00000  Uiso   1.00
H305   H     0.96155   0.86654   0.02712   0.00000  Uiso   1.00
H306   H     0.53367   0.04684   0.55461   0.00000  Uiso   1.00
H307   H     0.40221   0.88132   0.94800   0.00000  Uiso   1.00
H308   H     0.31343   0.80877   0.86872   0.00000  Uiso   1.00
H309   H     0.53656   0.87489   0.11073   0.00000  Uiso   1.00
H310   H     0.33365   0.96039   0.88665   0.00000  Uiso   1.00
H311   H     0.25136   0.72816   0.74610   0.00000  Uiso   1.00
H312   H     0.72184   0.86761   0.25639   0.00000  Uiso   1.00
H313   H     0.29395   0.04791   0.78388   0.00000  Uiso   1.00
O314   O     0.31788   0.67987   0.57450   0.00000  Uiso   1.00
O315   O     0.93514   0.86283   0.24398   0.00000  Uiso   1.00
O316   O     0.37376   0.09938   0.62405   0.00000  Uiso   1.00
N317   N     0.44683   0.73731   0.58165   0.00000  Uiso   1.00
N318   N     0.88670   0.86767   0.05875   0.00000  Uiso   1.00
N319   N     0.48668   0.03625   0.61701   0.00000  Uiso   1.00
N320   N     0.31784   0.73788   0.70502   0.00000  Uiso   1.00
N321   N     0.75771   0.86825   0.18211   0.00000  Uiso   1.00
N322   N     0.35769   0.03682   0.74038   0.00000  Uiso   1.00
C323   C     0.88195   0.11965   0.24157   0.00000  Uiso   1.00
C324   C     0.96067   0.15892   0.22763   0.00000  Uiso   1.00
C325   C     0.95500   0.19227   0.14721   0.00000  Uiso   1.00
C326   C     0.03473   0.22529   0.14837   0.00000  Uiso   1.00
C327   C     0.14440   0.28634   0.11478   0.00000  Uiso   1.00
C328   C     0.83944   0.12300   0.35913   0.00000  Uiso   1.00
C329   C     0.73183   0.12614   0.38925   0.00000  Uiso   1.00
C330   C     0.70951   0.12891   0.50111   0.00000  Uiso   1.00
C331   C     0.63096   0.13417   0.67167   0.00000  Uiso   1.00
C332   C     0.94969   0.07655   0.23737   0.00000  Uiso   1.00
C333   C     0.93478   0.04062   0.16515   0.00000  Uiso   1.00
C334   C     0.00527   0.00427   0.17451   0.00000  Uiso   1.00
C335   C     0.09790   0.93740   0.15603   0.00000  Uiso   1.00
C336   C     0.03364   0.11897   0.38665   0.00000  Uiso   1.00
C337   C     0.04306   0.15856   0.30644   0.00000  Uiso   1.00
C338   C     0.12283   0.19153   0.30772   0.00000  Uiso   1.00
C339   C     0.11727   0.22492   0.22731   0.00000  Uiso   1.00
C340   C     0.92182   0.12264   0.43793   0.00000  Uiso   1.00
C341   C     0.89966   0.12540   0.54977   0.00000  Uiso   1.00
C342   C     0.79205   0.12854   0.58006   0.00000  Uiso   1.00
C343   C     0.03209   0.07618   0.31617   0.00000  Uiso   1.00
C344   C     0.10261   0.03988   0.32566   0.00000  Uiso   1.00
C345   C     0.08780   0.00391   0.25346   0.00000  Uiso   1.00
H346   H     0.81781   0.11993   0.18022   0.00000  Uiso   1.00
H347   H     0.89122   0.19255   0.08624   0.00000  Uiso   1.00
H348   H     0.66809   0.12642   0.32825   0.00000  Uiso   1.00
H349   H     0.87101   0.04092   0.10418   0.00000  Uiso   1.00
H350   H     0.00893   0.27290   0.01683   0.00000  Uiso   1.00
H351   H     0.53845   0.13346   0.52712   0.00000  Uiso   1.00
H352   H     0.96633   0.95316   0.05461   0.00000  Uiso   1.00
H353   H     0.09779   0.11868   0.44800   0.00000  Uiso   1.00
H354   H     0.18657   0.19123   0.36872   0.00000  Uiso   1.00
H355   H     0.96344   0.12511   0.61073   0.00000  Uiso   1.00
H356   H     0.16635   0.03961   0.38665   0.00000  Uiso   1.00
H357   H     0.24864   0.27184   0.24610   0.00000  Uiso   1.00
H358   H     0.77816   0.13239   0.75639   0.00000  Uiso   1.00
H359   H     0.20605   0.95209   0.28388   0.00000  Uiso   1.00
O360   O     0.18212   0.32013   0.07450   0.00000  Uiso   1.00
O361   O     0.56486   0.13717   0.74398   0.00000  Uiso   1.00
O362   O     0.12624   0.90062   0.12405   0.00000  Uiso   1.00
N363   N     0.05317   0.26269   0.08165   0.00000  Uiso   1.00
N364   N     0.61330   0.13233   0.55875   0.00000  Uiso   1.00
N365   N     0.01332   0.96375   0.11701   0.00000  Uiso   1.00
N366   N     0.18216   0.26212   0.20502   0.00000  Uiso   1.00
N367   N     0.74229   0.13175   0.68211   0.00000  Uiso   1.00
N368   N     0.14231   0.96318   0.24038   0.00000  Uiso   1.00
