data_job_03998
_audit_creation_date              2018-12-19
_audit_creation_method            'Materials Studio'
_symmetry_space_group_name_H-M    'P1'
_symmetry_Int_Tables_number       1
_symmetry_cell_setting            triclinic
loop_
_symmetry_equiv_pos_as_xyz
  x,y,z
_cell_length_a                    36.9618
_cell_length_b                    17.8195
_cell_length_c                    9.9414
_cell_angle_alpha                 90.0000
_cell_angle_beta                  90.0000
_cell_angle_gamma                 90.0000
loop_
_atom_site_label
_atom_site_type_symbol
_atom_site_fract_x
_atom_site_fract_y
_atom_site_fract_z
_atom_site_U_iso_or_equiv
_atom_site_adp_type
_atom_site_occupancy
C1     C     0.67065   0.95350   0.87828   0.00000  Uiso   1.00
C2     C     0.63539   0.96495   0.80133   0.00000  Uiso   1.00
C3     C     0.61433   0.02941   0.80307   0.00000  Uiso   1.00
C4     C     0.58303   0.02876   0.72586   0.00000  Uiso   1.00
C5     C     0.52977   0.05609   0.61801   0.00000  Uiso   1.00
C6     C     0.66515   0.88352   0.96416   0.00000  Uiso   1.00
C7     C     0.66910   0.87951   0.10280   0.00000  Uiso   1.00
C8     C     0.66286   0.81031   0.16264   0.00000  Uiso   1.00
C9     C     0.65582   0.71120   0.30758   0.00000  Uiso   1.00
C10    C     0.69900   0.93270   0.77327   0.00000  Uiso   1.00
C11    C     0.73143   0.97003   0.75142   0.00000  Uiso   1.00
C12    C     0.75369   0.94222   0.65057   0.00000  Uiso   1.00
C13    C     0.79921   0.91947   0.49911   0.00000  Uiso   1.00
C14    C     0.65254   0.83774   0.73805   0.00000  Uiso   1.00
C15    C     0.62555   0.90207   0.72516   0.00000  Uiso   1.00
C16    C     0.59428   0.90133   0.64792   0.00000  Uiso   1.00
C17    C     0.57317   0.96577   0.64954   0.00000  Uiso   1.00
C18    C     0.65531   0.82064   0.88799   0.00000  Uiso   1.00
C19    C     0.64906   0.75143   0.94764   0.00000  Uiso   1.00
C20    C     0.65300   0.74732   0.08634   0.00000  Uiso   1.00
C21    C     0.68916   0.86982   0.69709   0.00000  Uiso   1.00
C22    C     0.71138   0.84195   0.59626   0.00000  Uiso   1.00
C23    C     0.74383   0.87923   0.57426   0.00000  Uiso   1.00
H24    H     0.67832   0.00245   0.93759   0.00000  Uiso   1.00
H25    H     0.62195   0.07806   0.86204   0.00000  Uiso   1.00
H26    H     0.67672   0.92818   0.16171   0.00000  Uiso   1.00
H27    H     0.73904   0.01868   0.81039   0.00000  Uiso   1.00
H28    H     0.55511   0.13414   0.74473   0.00000  Uiso   1.00
H29    H     0.67062   0.81810   0.37660   0.00000  Uiso   1.00
H30    H     0.80201   0.00895   0.63576   0.00000  Uiso   1.00
H31    H     0.64487   0.78878   0.67874   0.00000  Uiso   1.00
H32    H     0.58667   0.85266   0.58898   0.00000  Uiso   1.00
H33    H     0.64144   0.70278   0.88867   0.00000  Uiso   1.00
H34    H     0.70376   0.79329   0.53734   0.00000  Uiso   1.00
H35    H     0.52648   0.95119   0.52311   0.00000  Uiso   1.00
H36    H     0.64198   0.63516   0.15499   0.00000  Uiso   1.00
H37    H     0.77338   0.82601   0.41414   0.00000  Uiso   1.00
O38    O     0.50310   0.08853   0.57958   0.00000  Uiso   1.00
O39    O     0.65465   0.67391   0.40857   0.00000  Uiso   1.00
O40    O     0.82704   0.92430   0.43660   0.00000  Uiso   1.00
N41    N     0.55636   0.08232   0.70487   0.00000  Uiso   1.00
N42    N     0.66435   0.78685   0.29564   0.00000  Uiso   1.00
N43    N     0.78720   0.96527   0.60304   0.00000  Uiso   1.00
N44    N     0.54095   0.98388   0.58562   0.00000  Uiso   1.00
N45    N     0.64894   0.68841   0.17638   0.00000  Uiso   1.00
N46    N     0.77179   0.86683   0.48378   0.00000  Uiso   1.00
C47    C     0.82935   0.54650   0.37828   0.00000  Uiso   1.00
C48    C     0.86461   0.53505   0.30133   0.00000  Uiso   1.00
C49    C     0.88567   0.47059   0.30307   0.00000  Uiso   1.00
C50    C     0.91697   0.47124   0.22586   0.00000  Uiso   1.00
C51    C     0.97023   0.44391   0.11801   0.00000  Uiso   1.00
C52    C     0.83485   0.61648   0.46416   0.00000  Uiso   1.00
C53    C     0.83090   0.62049   0.60280   0.00000  Uiso   1.00
C54    C     0.83714   0.68969   0.66264   0.00000  Uiso   1.00
C55    C     0.84418   0.78880   0.80758   0.00000  Uiso   1.00
C56    C     0.80100   0.56730   0.27327   0.00000  Uiso   1.00
C57    C     0.76857   0.52997   0.25142   0.00000  Uiso   1.00
C58    C     0.74631   0.55778   0.15057   0.00000  Uiso   1.00
C59    C     0.70079   0.58053   0.99911   0.00000  Uiso   1.00
C60    C     0.84746   0.66226   0.23805   0.00000  Uiso   1.00
C61    C     0.87445   0.59793   0.22516   0.00000  Uiso   1.00
C62    C     0.90572   0.59867   0.14792   0.00000  Uiso   1.00
C63    C     0.92683   0.53423   0.14954   0.00000  Uiso   1.00
C64    C     0.84469   0.67936   0.38799   0.00000  Uiso   1.00
C65    C     0.85094   0.74857   0.44764   0.00000  Uiso   1.00
C66    C     0.84700   0.75268   0.58634   0.00000  Uiso   1.00
C67    C     0.81084   0.63018   0.19709   0.00000  Uiso   1.00
C68    C     0.78862   0.65805   0.09626   0.00000  Uiso   1.00
C69    C     0.75617   0.62077   0.07426   0.00000  Uiso   1.00
H70    H     0.82168   0.49755   0.43759   0.00000  Uiso   1.00
H71    H     0.87805   0.42194   0.36204   0.00000  Uiso   1.00
H72    H     0.82328   0.57182   0.66171   0.00000  Uiso   1.00
H73    H     0.76096   0.48132   0.31039   0.00000  Uiso   1.00
H74    H     0.94489   0.36586   0.24473   0.00000  Uiso   1.00
H75    H     0.82938   0.68190   0.87660   0.00000  Uiso   1.00
H76    H     0.69799   0.49105   0.13576   0.00000  Uiso   1.00
H77    H     0.85513   0.71122   0.17874   0.00000  Uiso   1.00
H78    H     0.91333   0.64734   0.08898   0.00000  Uiso   1.00
H79    H     0.85856   0.79722   0.38867   0.00000  Uiso   1.00
H80    H     0.79624   0.70671   0.03734   0.00000  Uiso   1.00
H81    H     0.97352   0.54881   0.02311   0.00000  Uiso   1.00
H82    H     0.85802   0.86484   0.65499   0.00000  Uiso   1.00
H83    H     0.72662   0.67399   0.91414   0.00000  Uiso   1.00
O84    O     0.99690   0.41147   0.07958   0.00000  Uiso   1.00
O85    O     0.84535   0.82609   0.90857   0.00000  Uiso   1.00
O86    O     0.67296   0.57570   0.93660   0.00000  Uiso   1.00
N87    N     0.94364   0.41768   0.20487   0.00000  Uiso   1.00
N88    N     0.83565   0.71315   0.79564   0.00000  Uiso   1.00
N89    N     0.71280   0.53473   0.10304   0.00000  Uiso   1.00
N90    N     0.95905   0.51612   0.08562   0.00000  Uiso   1.00
N91    N     0.85106   0.81159   0.67638   0.00000  Uiso   1.00
N92    N     0.72821   0.63317   0.98378   0.00000  Uiso   1.00
C93    C     0.32935   0.95350   0.62172   0.00000  Uiso   1.00
C94    C     0.36461   0.96495   0.69867   0.00000  Uiso   1.00
C95    C     0.38567   0.02941   0.69693   0.00000  Uiso   1.00
C96    C     0.41697   0.02876   0.77414   0.00000  Uiso   1.00
C97    C     0.47023   0.05609   0.88199   0.00000  Uiso   1.00
C98    C     0.33485   0.88352   0.53584   0.00000  Uiso   1.00
C99    C     0.33090   0.87951   0.39720   0.00000  Uiso   1.00
C100   C     0.33714   0.81031   0.33736   0.00000  Uiso   1.00
C101   C     0.34418   0.71120   0.19242   0.00000  Uiso   1.00
C102   C     0.30100   0.93270   0.72673   0.00000  Uiso   1.00
C103   C     0.26857   0.97003   0.74858   0.00000  Uiso   1.00
C104   C     0.24631   0.94222   0.84943   0.00000  Uiso   1.00
C105   C     0.20079   0.91947   0.00089   0.00000  Uiso   1.00
C106   C     0.34746   0.83774   0.76195   0.00000  Uiso   1.00
C107   C     0.37445   0.90207   0.77484   0.00000  Uiso   1.00
C108   C     0.40572   0.90133   0.85208   0.00000  Uiso   1.00
C109   C     0.42683   0.96577   0.85046   0.00000  Uiso   1.00
C110   C     0.34469   0.82064   0.61201   0.00000  Uiso   1.00
C111   C     0.35094   0.75143   0.55236   0.00000  Uiso   1.00
C112   C     0.34700   0.74732   0.41366   0.00000  Uiso   1.00
C113   C     0.31084   0.86982   0.80291   0.00000  Uiso   1.00
C114   C     0.28862   0.84195   0.90374   0.00000  Uiso   1.00
C115   C     0.25617   0.87923   0.92574   0.00000  Uiso   1.00
H116   H     0.32168   0.00245   0.56241   0.00000  Uiso   1.00
H117   H     0.37805   0.07806   0.63796   0.00000  Uiso   1.00
H118   H     0.32328   0.92818   0.33829   0.00000  Uiso   1.00
H119   H     0.26096   0.01868   0.68961   0.00000  Uiso   1.00
H120   H     0.44489   0.13414   0.75527   0.00000  Uiso   1.00
H121   H     0.32938   0.81810   0.12340   0.00000  Uiso   1.00
H122   H     0.19799   0.00895   0.86424   0.00000  Uiso   1.00
H123   H     0.35513   0.78878   0.82126   0.00000  Uiso   1.00
H124   H     0.41333   0.85266   0.91102   0.00000  Uiso   1.00
H125   H     0.35856   0.70278   0.61133   0.00000  Uiso   1.00
H126   H     0.29624   0.79329   0.96266   0.00000  Uiso   1.00
H127   H     0.47352   0.95119   0.97689   0.00000  Uiso   1.00
H128   H     0.35802   0.63516   0.34501   0.00000  Uiso   1.00
H129   H     0.22662   0.82601   0.08586   0.00000  Uiso   1.00
O130   O     0.49690   0.08853   0.92042   0.00000  Uiso   1.00
O131   O     0.34535   0.67391   0.09143   0.00000  Uiso   1.00
O132   O     0.17296   0.92430   0.06340   0.00000  Uiso   1.00
N133   N     0.44364   0.08232   0.79513   0.00000  Uiso   1.00
N134   N     0.33565   0.78685   0.20436   0.00000  Uiso   1.00
N135   N     0.21280   0.96527   0.89696   0.00000  Uiso   1.00
N136   N     0.45905   0.98388   0.91438   0.00000  Uiso   1.00
N137   N     0.35106   0.68841   0.32362   0.00000  Uiso   1.00
N138   N     0.22821   0.86683   0.01622   0.00000  Uiso   1.00
C139   C     0.17065   0.54650   0.12172   0.00000  Uiso   1.00
C140   C     0.13539   0.53505   0.19867   0.00000  Uiso   1.00
C141   C     0.11433   0.47059   0.19693   0.00000  Uiso   1.00
C142   C     0.08303   0.47124   0.27414   0.00000  Uiso   1.00
C143   C     0.02977   0.44391   0.38199   0.00000  Uiso   1.00
C144   C     0.16515   0.61648   0.03584   0.00000  Uiso   1.00
C145   C     0.16910   0.62049   0.89720   0.00000  Uiso   1.00
C146   C     0.16286   0.68969   0.83736   0.00000  Uiso   1.00
C147   C     0.15582   0.78880   0.69242   0.00000  Uiso   1.00
C148   C     0.19900   0.56730   0.22673   0.00000  Uiso   1.00
C149   C     0.23143   0.52997   0.24858   0.00000  Uiso   1.00
C150   C     0.25369   0.55778   0.34943   0.00000  Uiso   1.00
C151   C     0.29921   0.58053   0.50089   0.00000  Uiso   1.00
C152   C     0.15254   0.66226   0.26195   0.00000  Uiso   1.00
C153   C     0.12555   0.59793   0.27484   0.00000  Uiso   1.00
C154   C     0.09428   0.59867   0.35208   0.00000  Uiso   1.00
C155   C     0.07317   0.53423   0.35046   0.00000  Uiso   1.00
C156   C     0.15531   0.67936   0.11201   0.00000  Uiso   1.00
C157   C     0.14906   0.74857   0.05236   0.00000  Uiso   1.00
C158   C     0.15300   0.75268   0.91366   0.00000  Uiso   1.00
C159   C     0.18916   0.63018   0.30291   0.00000  Uiso   1.00
C160   C     0.21138   0.65805   0.40374   0.00000  Uiso   1.00
C161   C     0.24383   0.62077   0.42574   0.00000  Uiso   1.00
H162   H     0.17832   0.49755   0.06241   0.00000  Uiso   1.00
H163   H     0.12195   0.42194   0.13796   0.00000  Uiso   1.00
H164   H     0.17672   0.57182   0.83829   0.00000  Uiso   1.00
H165   H     0.23904   0.48132   0.18961   0.00000  Uiso   1.00
H166   H     0.05511   0.36586   0.25527   0.00000  Uiso   1.00
H167   H     0.17062   0.68190   0.62340   0.00000  Uiso   1.00
H168   H     0.30201   0.49105   0.36424   0.00000  Uiso   1.00
H169   H     0.14487   0.71122   0.32126   0.00000  Uiso   1.00
H170   H     0.08667   0.64734   0.41102   0.00000  Uiso   1.00
H171   H     0.14144   0.79722   0.11133   0.00000  Uiso   1.00
H172   H     0.20376   0.70671   0.46266   0.00000  Uiso   1.00
H173   H     0.02648   0.54881   0.47689   0.00000  Uiso   1.00
H174   H     0.14198   0.86484   0.84501   0.00000  Uiso   1.00
H175   H     0.27338   0.67399   0.58586   0.00000  Uiso   1.00
O176   O     0.00310   0.41147   0.42042   0.00000  Uiso   1.00
O177   O     0.15465   0.82609   0.59143   0.00000  Uiso   1.00
O178   O     0.32704   0.57570   0.56340   0.00000  Uiso   1.00
N179   N     0.05636   0.41768   0.29513   0.00000  Uiso   1.00
N180   N     0.16435   0.71315   0.70436   0.00000  Uiso   1.00
N181   N     0.28720   0.53473   0.39696   0.00000  Uiso   1.00
N182   N     0.04095   0.51612   0.41438   0.00000  Uiso   1.00
N183   N     0.14894   0.81159   0.82362   0.00000  Uiso   1.00
N184   N     0.27179   0.63317   0.51622   0.00000  Uiso   1.00
C185   C     0.32935   0.04650   0.12172   0.00000  Uiso   1.00
C186   C     0.36461   0.03505   0.19867   0.00000  Uiso   1.00
C187   C     0.38567   0.97059   0.19693   0.00000  Uiso   1.00
C188   C     0.41697   0.97124   0.27414   0.00000  Uiso   1.00
C189   C     0.47023   0.94391   0.38199   0.00000  Uiso   1.00
C190   C     0.33485   0.11648   0.03584   0.00000  Uiso   1.00
C191   C     0.33090   0.12049   0.89720   0.00000  Uiso   1.00
C192   C     0.33714   0.18969   0.83736   0.00000  Uiso   1.00
C193   C     0.34418   0.28880   0.69242   0.00000  Uiso   1.00
C194   C     0.30100   0.06730   0.22673   0.00000  Uiso   1.00
C195   C     0.26857   0.02997   0.24858   0.00000  Uiso   1.00
C196   C     0.24631   0.05778   0.34943   0.00000  Uiso   1.00
C197   C     0.20079   0.08053   0.50089   0.00000  Uiso   1.00
C198   C     0.34746   0.16226   0.26195   0.00000  Uiso   1.00
C199   C     0.37445   0.09793   0.27484   0.00000  Uiso   1.00
C200   C     0.40572   0.09867   0.35208   0.00000  Uiso   1.00
C201   C     0.42683   0.03423   0.35046   0.00000  Uiso   1.00
C202   C     0.34469   0.17936   0.11201   0.00000  Uiso   1.00
C203   C     0.35094   0.24857   0.05236   0.00000  Uiso   1.00
C204   C     0.34700   0.25268   0.91366   0.00000  Uiso   1.00
C205   C     0.31084   0.13018   0.30291   0.00000  Uiso   1.00
C206   C     0.28862   0.15805   0.40374   0.00000  Uiso   1.00
C207   C     0.25617   0.12077   0.42574   0.00000  Uiso   1.00
H208   H     0.32168   0.99755   0.06241   0.00000  Uiso   1.00
H209   H     0.37805   0.92194   0.13796   0.00000  Uiso   1.00
H210   H     0.32328   0.07182   0.83829   0.00000  Uiso   1.00
H211   H     0.26096   0.98132   0.18961   0.00000  Uiso   1.00
H212   H     0.44489   0.86586   0.25527   0.00000  Uiso   1.00
H213   H     0.32938   0.18190   0.62340   0.00000  Uiso   1.00
H214   H     0.19799   0.99105   0.36424   0.00000  Uiso   1.00
H215   H     0.35513   0.21122   0.32126   0.00000  Uiso   1.00
H216   H     0.41333   0.14734   0.41102   0.00000  Uiso   1.00
H217   H     0.35856   0.29722   0.11133   0.00000  Uiso   1.00
H218   H     0.29624   0.20671   0.46266   0.00000  Uiso   1.00
H219   H     0.47352   0.04881   0.47689   0.00000  Uiso   1.00
H220   H     0.35802   0.36484   0.84501   0.00000  Uiso   1.00
H221   H     0.22662   0.17399   0.58586   0.00000  Uiso   1.00
O222   O     0.49690   0.91147   0.42042   0.00000  Uiso   1.00
O223   O     0.34535   0.32609   0.59143   0.00000  Uiso   1.00
O224   O     0.17296   0.07570   0.56340   0.00000  Uiso   1.00
N225   N     0.44364   0.91768   0.29513   0.00000  Uiso   1.00
N226   N     0.33565   0.21315   0.70436   0.00000  Uiso   1.00
N227   N     0.21280   0.03473   0.39696   0.00000  Uiso   1.00
N228   N     0.45905   0.01612   0.41438   0.00000  Uiso   1.00
N229   N     0.35106   0.31159   0.82362   0.00000  Uiso   1.00
N230   N     0.22821   0.13317   0.51622   0.00000  Uiso   1.00
C231   C     0.17065   0.45350   0.62172   0.00000  Uiso   1.00
C232   C     0.13539   0.46495   0.69867   0.00000  Uiso   1.00
C233   C     0.11433   0.52941   0.69693   0.00000  Uiso   1.00
C234   C     0.08303   0.52876   0.77414   0.00000  Uiso   1.00
C235   C     0.02977   0.55609   0.88199   0.00000  Uiso   1.00
C236   C     0.16515   0.38352   0.53584   0.00000  Uiso   1.00
C237   C     0.16910   0.37951   0.39720   0.00000  Uiso   1.00
C238   C     0.16286   0.31031   0.33736   0.00000  Uiso   1.00
C239   C     0.15582   0.21120   0.19242   0.00000  Uiso   1.00
C240   C     0.19900   0.43270   0.72673   0.00000  Uiso   1.00
C241   C     0.23143   0.47003   0.74858   0.00000  Uiso   1.00
C242   C     0.25369   0.44222   0.84943   0.00000  Uiso   1.00
C243   C     0.29921   0.41947   0.00089   0.00000  Uiso   1.00
C244   C     0.15254   0.33774   0.76195   0.00000  Uiso   1.00
C245   C     0.12555   0.40207   0.77484   0.00000  Uiso   1.00
C246   C     0.09428   0.40133   0.85208   0.00000  Uiso   1.00
C247   C     0.07317   0.46577   0.85046   0.00000  Uiso   1.00
C248   C     0.15531   0.32064   0.61201   0.00000  Uiso   1.00
C249   C     0.14906   0.25143   0.55236   0.00000  Uiso   1.00
C250   C     0.15300   0.24732   0.41366   0.00000  Uiso   1.00
C251   C     0.18916   0.36982   0.80291   0.00000  Uiso   1.00
C252   C     0.21138   0.34195   0.90374   0.00000  Uiso   1.00
C253   C     0.24383   0.37923   0.92574   0.00000  Uiso   1.00
H254   H     0.17832   0.50245   0.56241   0.00000  Uiso   1.00
H255   H     0.12195   0.57806   0.63796   0.00000  Uiso   1.00
H256   H     0.17672   0.42818   0.33829   0.00000  Uiso   1.00
H257   H     0.23904   0.51868   0.68961   0.00000  Uiso   1.00
H258   H     0.05511   0.63414   0.75527   0.00000  Uiso   1.00
H259   H     0.17062   0.31810   0.12340   0.00000  Uiso   1.00
H260   H     0.30201   0.50895   0.86424   0.00000  Uiso   1.00
H261   H     0.14487   0.28878   0.82126   0.00000  Uiso   1.00
H262   H     0.08667   0.35266   0.91102   0.00000  Uiso   1.00
H263   H     0.14144   0.20278   0.61133   0.00000  Uiso   1.00
H264   H     0.20376   0.29329   0.96266   0.00000  Uiso   1.00
H265   H     0.02648   0.45119   0.97689   0.00000  Uiso   1.00
H266   H     0.14198   0.13516   0.34501   0.00000  Uiso   1.00
H267   H     0.27338   0.32601   0.08586   0.00000  Uiso   1.00
O268   O     0.00310   0.58853   0.92042   0.00000  Uiso   1.00
O269   O     0.15465   0.17391   0.09143   0.00000  Uiso   1.00
O270   O     0.32704   0.42430   0.06340   0.00000  Uiso   1.00
N271   N     0.05636   0.58232   0.79513   0.00000  Uiso   1.00
N272   N     0.16435   0.28685   0.20436   0.00000  Uiso   1.00
N273   N     0.28720   0.46527   0.89696   0.00000  Uiso   1.00
N274   N     0.04095   0.48388   0.91438   0.00000  Uiso   1.00
N275   N     0.14894   0.18841   0.32362   0.00000  Uiso   1.00
N276   N     0.27179   0.36683   0.01622   0.00000  Uiso   1.00
C277   C     0.67065   0.04650   0.37828   0.00000  Uiso   1.00
C278   C     0.63539   0.03505   0.30133   0.00000  Uiso   1.00
C279   C     0.61433   0.97059   0.30307   0.00000  Uiso   1.00
C280   C     0.58303   0.97124   0.22586   0.00000  Uiso   1.00
C281   C     0.52977   0.94391   0.11801   0.00000  Uiso   1.00
C282   C     0.66515   0.11648   0.46416   0.00000  Uiso   1.00
C283   C     0.66910   0.12049   0.60280   0.00000  Uiso   1.00
C284   C     0.66286   0.18969   0.66264   0.00000  Uiso   1.00
C285   C     0.65582   0.28880   0.80758   0.00000  Uiso   1.00
C286   C     0.69900   0.06730   0.27327   0.00000  Uiso   1.00
C287   C     0.73143   0.02997   0.25142   0.00000  Uiso   1.00
C288   C     0.75369   0.05778   0.15057   0.00000  Uiso   1.00
C289   C     0.79921   0.08053   0.99911   0.00000  Uiso   1.00
C290   C     0.65254   0.16226   0.23805   0.00000  Uiso   1.00
C291   C     0.62555   0.09793   0.22516   0.00000  Uiso   1.00
C292   C     0.59428   0.09867   0.14792   0.00000  Uiso   1.00
C293   C     0.57317   0.03423   0.14954   0.00000  Uiso   1.00
C294   C     0.65531   0.17936   0.38799   0.00000  Uiso   1.00
C295   C     0.64906   0.24857   0.44764   0.00000  Uiso   1.00
C296   C     0.65300   0.25268   0.58634   0.00000  Uiso   1.00
C297   C     0.68916   0.13018   0.19709   0.00000  Uiso   1.00
C298   C     0.71138   0.15805   0.09626   0.00000  Uiso   1.00
C299   C     0.74383   0.12077   0.07426   0.00000  Uiso   1.00
H300   H     0.67832   0.99755   0.43759   0.00000  Uiso   1.00
H301   H     0.62195   0.92194   0.36204   0.00000  Uiso   1.00
H302   H     0.67672   0.07182   0.66171   0.00000  Uiso   1.00
H303   H     0.73904   0.98132   0.31039   0.00000  Uiso   1.00
H304   H     0.55511   0.86586   0.24473   0.00000  Uiso   1.00
H305   H     0.67062   0.18190   0.87660   0.00000  Uiso   1.00
H306   H     0.80201   0.99105   0.13576   0.00000  Uiso   1.00
H307   H     0.64487   0.21122   0.17874   0.00000  Uiso   1.00
H308   H     0.58667   0.14734   0.08898   0.00000  Uiso   1.00
H309   H     0.64144   0.29722   0.38867   0.00000  Uiso   1.00
H310   H     0.70376   0.20671   0.03734   0.00000  Uiso   1.00
H311   H     0.52648   0.04881   0.02311   0.00000  Uiso   1.00
H312   H     0.64198   0.36484   0.65499   0.00000  Uiso   1.00
H313   H     0.77338   0.17399   0.91414   0.00000  Uiso   1.00
O314   O     0.50310   0.91147   0.07958   0.00000  Uiso   1.00
O315   O     0.65465   0.32609   0.90857   0.00000  Uiso   1.00
O316   O     0.82704   0.07570   0.93660   0.00000  Uiso   1.00
N317   N     0.55636   0.91768   0.20487   0.00000  Uiso   1.00
N318   N     0.66435   0.21315   0.79564   0.00000  Uiso   1.00
N319   N     0.78720   0.03473   0.10304   0.00000  Uiso   1.00
N320   N     0.54095   0.01612   0.08562   0.00000  Uiso   1.00
N321   N     0.64894   0.31159   0.67638   0.00000  Uiso   1.00
N322   N     0.77179   0.13317   0.98378   0.00000  Uiso   1.00
C323   C     0.82935   0.45350   0.87828   0.00000  Uiso   1.00
C324   C     0.86461   0.46495   0.80133   0.00000  Uiso   1.00
C325   C     0.88567   0.52941   0.80307   0.00000  Uiso   1.00
C326   C     0.91697   0.52876   0.72586   0.00000  Uiso   1.00
C327   C     0.97023   0.55609   0.61801   0.00000  Uiso   1.00
C328   C     0.83485   0.38352   0.96416   0.00000  Uiso   1.00
C329   C     0.83090   0.37951   0.10280   0.00000  Uiso   1.00
C330   C     0.83714   0.31031   0.16264   0.00000  Uiso   1.00
C331   C     0.84418   0.21120   0.30758   0.00000  Uiso   1.00
C332   C     0.80100   0.43270   0.77327   0.00000  Uiso   1.00
C333   C     0.76857   0.47003   0.75142   0.00000  Uiso   1.00
C334   C     0.74631   0.44222   0.65057   0.00000  Uiso   1.00
C335   C     0.70079   0.41947   0.49911   0.00000  Uiso   1.00
C336   C     0.84746   0.33774   0.73805   0.00000  Uiso   1.00
C337   C     0.87445   0.40207   0.72516   0.00000  Uiso   1.00
C338   C     0.90572   0.40133   0.64792   0.00000  Uiso   1.00
C339   C     0.92683   0.46577   0.64954   0.00000  Uiso   1.00
C340   C     0.84469   0.32064   0.88799   0.00000  Uiso   1.00
C341   C     0.85094   0.25143   0.94764   0.00000  Uiso   1.00
C342   C     0.84700   0.24732   0.08634   0.00000  Uiso   1.00
C343   C     0.81084   0.36982   0.69709   0.00000  Uiso   1.00
C344   C     0.78862   0.34195   0.59626   0.00000  Uiso   1.00
C345   C     0.75617   0.37923   0.57426   0.00000  Uiso   1.00
H346   H     0.82168   0.50245   0.93759   0.00000  Uiso   1.00
H347   H     0.87805   0.57806   0.86204   0.00000  Uiso   1.00
H348   H     0.82328   0.42818   0.16171   0.00000  Uiso   1.00
H349   H     0.76096   0.51868   0.81039   0.00000  Uiso   1.00
H350   H     0.94489   0.63414   0.74473   0.00000  Uiso   1.00
H351   H     0.82938   0.31810   0.37660   0.00000  Uiso   1.00
H352   H     0.69799   0.50895   0.63576   0.00000  Uiso   1.00
H353   H     0.85513   0.28878   0.67874   0.00000  Uiso   1.00
H354   H     0.91333   0.35266   0.58898   0.00000  Uiso   1.00
H355   H     0.85856   0.20278   0.88867   0.00000  Uiso   1.00
H356   H     0.79624   0.29329   0.53734   0.00000  Uiso   1.00
H357   H     0.97352   0.45119   0.52311   0.00000  Uiso   1.00
H358   H     0.85802   0.13516   0.15499   0.00000  Uiso   1.00
H359   H     0.72662   0.32601   0.41414   0.00000  Uiso   1.00
O360   O     0.99690   0.58853   0.57958   0.00000  Uiso   1.00
O361   O     0.84535   0.17391   0.40857   0.00000  Uiso   1.00
O362   O     0.67296   0.42430   0.43660   0.00000  Uiso   1.00
N363   N     0.94364   0.58232   0.70487   0.00000  Uiso   1.00
N364   N     0.83565   0.28685   0.29564   0.00000  Uiso   1.00
N365   N     0.71280   0.46527   0.60304   0.00000  Uiso   1.00
N366   N     0.95905   0.48388   0.58562   0.00000  Uiso   1.00
N367   N     0.85106   0.18841   0.17638   0.00000  Uiso   1.00
N368   N     0.72821   0.36683   0.48378   0.00000  Uiso   1.00
