data_job_05229
_audit_creation_date              2018-12-19
_audit_creation_method            'Materials Studio'
_symmetry_space_group_name_H-M    'P1'
_symmetry_Int_Tables_number       1
_symmetry_cell_setting            triclinic
loop_
_symmetry_equiv_pos_as_xyz
  x,y,z
_cell_length_a                    34.0214
_cell_length_b                    12.9058
_cell_length_c                    13.5511
_cell_angle_alpha                 90.0000
_cell_angle_beta                  90.0000
_cell_angle_gamma                 90.0000
loop_
_atom_site_label
_atom_site_type_symbol
_atom_site_fract_x
_atom_site_fract_y
_atom_site_fract_z
_atom_site_U_iso_or_equiv
_atom_site_adp_type
_atom_site_occupancy
C1     C     0.67477   0.69815   0.70495   0.00000  Uiso   1.00
C2     C     0.63929   0.66528   0.76617   0.00000  Uiso   1.00
C3     C     0.63301   0.68915   0.86477   0.00000  Uiso   1.00
C4     C     0.59872   0.65180   0.90748   0.00000  Uiso   1.00
C5     C     0.54775   0.60970   0.01078   0.00000  Uiso   1.00
C6     C     0.69262   0.59845   0.66447   0.00000  Uiso   1.00
C7     C     0.73118   0.56614   0.67755   0.00000  Uiso   1.00
C8     C     0.74179   0.47254   0.63464   0.00000  Uiso   1.00
C9     C     0.77362   0.32672   0.57998   0.00000  Uiso   1.00
C10    C     0.65834   0.75619   0.61603   0.00000  Uiso   1.00
C11    C     0.66808   0.85649   0.58837   0.00000  Uiso   1.00
C12    C     0.64984   0.89569   0.50466   0.00000  Uiso   1.00
C13    C     0.62845   0.99478   0.37479   0.00000  Uiso   1.00
C14    C     0.62507   0.58939   0.60546   0.00000  Uiso   1.00
C15    C     0.61229   0.60621   0.71213   0.00000  Uiso   1.00
C16    C     0.57801   0.56882   0.75470   0.00000  Uiso   1.00
C17    C     0.57167   0.59263   0.85335   0.00000  Uiso   1.00
C18    C     0.66563   0.53938   0.61043   0.00000  Uiso   1.00
C19    C     0.67619   0.44581   0.56748   0.00000  Uiso   1.00
C20    C     0.71475   0.41335   0.58050   0.00000  Uiso   1.00
C21    C     0.63134   0.69711   0.56199   0.00000  Uiso   1.00
C22    C     0.61309   0.73616   0.47830   0.00000  Uiso   1.00
C23    C     0.62279   0.83650   0.45052   0.00000  Uiso   1.00
H24    H     0.69580   0.74414   0.74702   0.00000  Uiso   1.00
H25    H     0.65391   0.73486   0.90657   0.00000  Uiso   1.00
H26    H     0.75207   0.61187   0.71937   0.00000  Uiso   1.00
H27    H     0.68898   0.90218   0.63020   0.00000  Uiso   1.00
H28    H     0.59557   0.69849   0.05964   0.00000  Uiso   1.00
H29    H     0.80255   0.43918   0.66489   0.00000  Uiso   1.00
H30    H     0.66951   0.05135   0.47686   0.00000  Uiso   1.00
H31    H     0.60405   0.54340   0.56339   0.00000  Uiso   1.00
H32    H     0.55712   0.52310   0.71286   0.00000  Uiso   1.00
H33    H     0.65528   0.40012   0.52567   0.00000  Uiso   1.00
H34    H     0.59219   0.69042   0.43650   0.00000  Uiso   1.00
H35    H     0.51702   0.52661   0.90242   0.00000  Uiso   1.00
H36    H     0.72400   0.26731   0.50767   0.00000  Uiso   1.00
H37    H     0.59096   0.87948   0.31965   0.00000  Uiso   1.00
O38    O     0.52709   0.60279   0.08268   0.00000  Uiso   1.00
O39    O     0.79864   0.26260   0.56477   0.00000  Uiso   1.00
O40    O     0.62410   0.06576   0.31810   0.00000  Uiso   1.00
N41    N     0.58352   0.66084   0.00212   0.00000  Uiso   1.00
N42    N     0.77703   0.41839   0.63306   0.00000  Uiso   1.00
N43    N     0.65266   0.99071   0.45726   0.00000  Uiso   1.00
N44    N     0.54125   0.56836   0.91752   0.00000  Uiso   1.00
N45    N     0.73476   0.32591   0.54847   0.00000  Uiso   1.00
N46    N     0.61039   0.89823   0.37267   0.00000  Uiso   1.00
C47    C     0.66699   0.18580   0.80607   0.00000  Uiso   1.00
C48    C     0.63472   0.21707   0.73388   0.00000  Uiso   1.00
C49    C     0.63344   0.19193   0.63436   0.00000  Uiso   1.00
C50    C     0.60143   0.22790   0.58086   0.00000  Uiso   1.00
C51    C     0.55584   0.26752   0.46198   0.00000  Uiso   1.00
C52    C     0.68238   0.28641   0.85068   0.00000  Uiso   1.00
C53    C     0.72118   0.31956   0.84937   0.00000  Uiso   1.00
C54    C     0.72929   0.41391   0.89419   0.00000  Uiso   1.00
C55    C     0.75770   0.56115   0.95671   0.00000  Uiso   1.00
C56    C     0.64646   0.12836   0.88982   0.00000  Uiso   1.00
C57    C     0.65507   0.02863   0.92145   0.00000  Uiso   1.00
C58    C     0.63295   0.98993   0.99926   0.00000  Uiso   1.00
C59    C     0.60559   0.89177   0.12255   0.00000  Uiso   1.00
C60    C     0.61240   0.29441   0.88803   0.00000  Uiso   1.00
C61    C     0.60506   0.27606   0.77840   0.00000  Uiso   1.00
C62    C     0.57304   0.31208   0.72503   0.00000  Uiso   1.00
C63    C     0.57172   0.28700   0.62545   0.00000  Uiso   1.00
C64    C     0.65273   0.34540   0.89519   0.00000  Uiso   1.00
C65    C     0.66078   0.43972   0.94004   0.00000  Uiso   1.00
C66    C     0.69959   0.47301   0.93879   0.00000  Uiso   1.00
C67    C     0.61681   0.18735   0.93434   0.00000  Uiso   1.00
C68    C     0.59467   0.14879   0.01212   0.00000  Uiso   1.00
C69    C     0.60324   0.04902   0.04385   0.00000  Uiso   1.00
H70    H     0.69008   0.13988   0.77142   0.00000  Uiso   1.00
H71    H     0.65640   0.14628   0.59994   0.00000  Uiso   1.00
H72    H     0.74413   0.27389   0.81492   0.00000  Uiso   1.00
H73    H     0.67802   0.98301   0.88699   0.00000  Uiso   1.00
H74    H     0.60599   0.17942   0.42944   0.00000  Uiso   1.00
H75    H     0.79097   0.44848   0.88277   0.00000  Uiso   1.00
H76    H     0.65158   0.83510   0.03474   0.00000  Uiso   1.00
H77    H     0.58931   0.34034   0.92269   0.00000  Uiso   1.00
H78    H     0.55010   0.35773   0.75950   0.00000  Uiso   1.00
H79    H     0.63783   0.48534   0.97448   0.00000  Uiso   1.00
H80    H     0.57172   0.19446   0.04655   0.00000  Uiso   1.00
H81    H     0.51971   0.35105   0.55894   0.00000  Uiso   1.00
H82    H     0.70469   0.62010   0.01228   0.00000  Uiso   1.00
H83    H     0.56530   0.00672   0.16425   0.00000  Uiso   1.00
O84    O     0.53888   0.27309   0.38411   0.00000  Uiso   1.00
O85    O     0.78157   0.62607   0.97888   0.00000  Uiso   1.00
O86    O     0.59869   0.82133   0.17825   0.00000  Uiso   1.00
N87    N     0.59106   0.21741   0.48232   0.00000  Uiso   1.00
N88    N     0.76401   0.46897   0.90614   0.00000  Uiso   1.00
N89    N     0.63369   0.89552   0.04824   0.00000  Uiso   1.00
N90    N     0.54464   0.30976   0.55200   0.00000  Uiso   1.00
N91    N     0.71758   0.56132   0.97583   0.00000  Uiso   1.00
N92    N     0.58727   0.98787   0.11792   0.00000  Uiso   1.00
C93    C     0.32523   0.30185   0.20495   0.00000  Uiso   1.00
C94    C     0.36071   0.33472   0.26617   0.00000  Uiso   1.00
C95    C     0.36699   0.31085   0.36477   0.00000  Uiso   1.00
C96    C     0.40128   0.34820   0.40748   0.00000  Uiso   1.00
C97    C     0.45225   0.39030   0.51078   0.00000  Uiso   1.00
C98    C     0.30738   0.40155   0.16447   0.00000  Uiso   1.00
C99    C     0.26882   0.43386   0.17755   0.00000  Uiso   1.00
C100   C     0.25821   0.52746   0.13464   0.00000  Uiso   1.00
C101   C     0.22638   0.67328   0.07998   0.00000  Uiso   1.00
C102   C     0.34166   0.24381   0.11603   0.00000  Uiso   1.00
C103   C     0.33192   0.14351   0.08837   0.00000  Uiso   1.00
C104   C     0.35016   0.10431   0.00466   0.00000  Uiso   1.00
C105   C     0.37155   0.00522   0.87479   0.00000  Uiso   1.00
C106   C     0.37493   0.41061   0.10546   0.00000  Uiso   1.00
C107   C     0.38771   0.39379   0.21213   0.00000  Uiso   1.00
C108   C     0.42199   0.43118   0.25470   0.00000  Uiso   1.00
C109   C     0.42833   0.40737   0.35335   0.00000  Uiso   1.00
C110   C     0.33437   0.46062   0.11043   0.00000  Uiso   1.00
C111   C     0.32381   0.55419   0.06748   0.00000  Uiso   1.00
C112   C     0.28525   0.58665   0.08050   0.00000  Uiso   1.00
C113   C     0.36866   0.30289   0.06199   0.00000  Uiso   1.00
C114   C     0.38691   0.26384   0.97830   0.00000  Uiso   1.00
C115   C     0.37721   0.16350   0.95052   0.00000  Uiso   1.00
H116   H     0.30420   0.25586   0.24702   0.00000  Uiso   1.00
H117   H     0.34609   0.26514   0.40657   0.00000  Uiso   1.00
H118   H     0.24793   0.38813   0.21937   0.00000  Uiso   1.00
H119   H     0.31102   0.09782   0.13020   0.00000  Uiso   1.00
H120   H     0.40443   0.30151   0.55964   0.00000  Uiso   1.00
H121   H     0.19745   0.56082   0.16489   0.00000  Uiso   1.00
H122   H     0.33049   0.94865   0.97686   0.00000  Uiso   1.00
H123   H     0.39595   0.45660   0.06339   0.00000  Uiso   1.00
H124   H     0.44288   0.47690   0.21286   0.00000  Uiso   1.00
H125   H     0.34472   0.59988   0.02567   0.00000  Uiso   1.00
H126   H     0.40781   0.30958   0.93650   0.00000  Uiso   1.00
H127   H     0.48298   0.47339   0.40242   0.00000  Uiso   1.00
H128   H     0.27600   0.73269   0.00767   0.00000  Uiso   1.00
H129   H     0.40904   0.12052   0.81965   0.00000  Uiso   1.00
O130   O     0.47291   0.39721   0.58268   0.00000  Uiso   1.00
O131   O     0.20136   0.73740   0.06477   0.00000  Uiso   1.00
O132   O     0.37590   0.93424   0.81810   0.00000  Uiso   1.00
N133   N     0.41648   0.33916   0.50212   0.00000  Uiso   1.00
N134   N     0.22297   0.58161   0.13306   0.00000  Uiso   1.00
N135   N     0.34734   0.00929   0.95726   0.00000  Uiso   1.00
N136   N     0.45875   0.43164   0.41752   0.00000  Uiso   1.00
N137   N     0.26524   0.67409   0.04847   0.00000  Uiso   1.00
N138   N     0.38961   0.10177   0.87267   0.00000  Uiso   1.00
C139   C     0.33301   0.81420   0.30607   0.00000  Uiso   1.00
C140   C     0.36528   0.78293   0.23388   0.00000  Uiso   1.00
C141   C     0.36656   0.80807   0.13436   0.00000  Uiso   1.00
C142   C     0.39857   0.77210   0.08086   0.00000  Uiso   1.00
C143   C     0.44416   0.73248   0.96198   0.00000  Uiso   1.00
C144   C     0.31762   0.71359   0.35068   0.00000  Uiso   1.00
C145   C     0.27882   0.68044   0.34937   0.00000  Uiso   1.00
C146   C     0.27071   0.58609   0.39419   0.00000  Uiso   1.00
C147   C     0.24230   0.43885   0.45671   0.00000  Uiso   1.00
C148   C     0.35354   0.87164   0.38982   0.00000  Uiso   1.00
C149   C     0.34493   0.97137   0.42145   0.00000  Uiso   1.00
C150   C     0.36705   0.01007   0.49926   0.00000  Uiso   1.00
C151   C     0.39441   0.10823   0.62255   0.00000  Uiso   1.00
C152   C     0.38760   0.70559   0.38803   0.00000  Uiso   1.00
C153   C     0.39494   0.72394   0.27840   0.00000  Uiso   1.00
C154   C     0.42696   0.68792   0.22503   0.00000  Uiso   1.00
C155   C     0.42828   0.71300   0.12545   0.00000  Uiso   1.00
C156   C     0.34727   0.65460   0.39519   0.00000  Uiso   1.00
C157   C     0.33922   0.56028   0.44004   0.00000  Uiso   1.00
C158   C     0.30041   0.52699   0.43879   0.00000  Uiso   1.00
C159   C     0.38319   0.81265   0.43434   0.00000  Uiso   1.00
C160   C     0.40533   0.85121   0.51212   0.00000  Uiso   1.00
C161   C     0.39676   0.95098   0.54385   0.00000  Uiso   1.00
H162   H     0.30992   0.86012   0.27142   0.00000  Uiso   1.00
H163   H     0.34360   0.85372   0.09994   0.00000  Uiso   1.00
H164   H     0.25587   0.72611   0.31492   0.00000  Uiso   1.00
H165   H     0.32198   0.01699   0.38699   0.00000  Uiso   1.00
H166   H     0.39401   0.82058   0.92944   0.00000  Uiso   1.00
H167   H     0.20903   0.55152   0.38277   0.00000  Uiso   1.00
H168   H     0.34842   0.16490   0.53474   0.00000  Uiso   1.00
H169   H     0.41069   0.65966   0.42269   0.00000  Uiso   1.00
H170   H     0.44990   0.64227   0.25950   0.00000  Uiso   1.00
H171   H     0.36217   0.51466   0.47448   0.00000  Uiso   1.00
H172   H     0.42828   0.80554   0.54655   0.00000  Uiso   1.00
H173   H     0.48029   0.64895   0.05894   0.00000  Uiso   1.00
H174   H     0.29531   0.37990   0.51228   0.00000  Uiso   1.00
H175   H     0.43470   0.99328   0.66425   0.00000  Uiso   1.00
O176   O     0.46112   0.72691   0.88411   0.00000  Uiso   1.00
O177   O     0.21843   0.37393   0.47888   0.00000  Uiso   1.00
O178   O     0.40131   0.17867   0.67825   0.00000  Uiso   1.00
N179   N     0.40894   0.78259   0.98232   0.00000  Uiso   1.00
N180   N     0.23599   0.53103   0.40614   0.00000  Uiso   1.00
N181   N     0.36631   0.10448   0.54824   0.00000  Uiso   1.00
N182   N     0.45536   0.69024   0.05200   0.00000  Uiso   1.00
N183   N     0.28242   0.43868   0.47583   0.00000  Uiso   1.00
N184   N     0.41273   0.01213   0.61792   0.00000  Uiso   1.00
C185   C     0.17477   0.80185   0.70495   0.00000  Uiso   1.00
C186   C     0.13929   0.83472   0.76617   0.00000  Uiso   1.00
C187   C     0.13301   0.81085   0.86477   0.00000  Uiso   1.00
C188   C     0.09872   0.84820   0.90748   0.00000  Uiso   1.00
C189   C     0.04775   0.89030   0.01078   0.00000  Uiso   1.00
C190   C     0.19262   0.90155   0.66447   0.00000  Uiso   1.00
C191   C     0.23118   0.93386   0.67755   0.00000  Uiso   1.00
C192   C     0.24179   0.02746   0.63464   0.00000  Uiso   1.00
C193   C     0.27362   0.17328   0.57998   0.00000  Uiso   1.00
C194   C     0.15834   0.74381   0.61603   0.00000  Uiso   1.00
C195   C     0.16808   0.64351   0.58837   0.00000  Uiso   1.00
C196   C     0.14984   0.60431   0.50466   0.00000  Uiso   1.00
C197   C     0.12845   0.50522   0.37479   0.00000  Uiso   1.00
C198   C     0.12507   0.91061   0.60546   0.00000  Uiso   1.00
C199   C     0.11229   0.89379   0.71213   0.00000  Uiso   1.00
C200   C     0.07801   0.93118   0.75470   0.00000  Uiso   1.00
C201   C     0.07167   0.90737   0.85335   0.00000  Uiso   1.00
C202   C     0.16563   0.96062   0.61043   0.00000  Uiso   1.00
C203   C     0.17619   0.05419   0.56748   0.00000  Uiso   1.00
C204   C     0.21475   0.08665   0.58050   0.00000  Uiso   1.00
C205   C     0.13134   0.80289   0.56199   0.00000  Uiso   1.00
C206   C     0.11309   0.76384   0.47830   0.00000  Uiso   1.00
C207   C     0.12279   0.66350   0.45052   0.00000  Uiso   1.00
H208   H     0.19580   0.75586   0.74702   0.00000  Uiso   1.00
H209   H     0.15391   0.76514   0.90657   0.00000  Uiso   1.00
H210   H     0.25207   0.88813   0.71937   0.00000  Uiso   1.00
H211   H     0.18898   0.59782   0.63020   0.00000  Uiso   1.00
H212   H     0.09557   0.80151   0.05964   0.00000  Uiso   1.00
H213   H     0.30255   0.06082   0.66489   0.00000  Uiso   1.00
H214   H     0.16951   0.44865   0.47686   0.00000  Uiso   1.00
H215   H     0.10405   0.95660   0.56339   0.00000  Uiso   1.00
H216   H     0.05712   0.97690   0.71286   0.00000  Uiso   1.00
H217   H     0.15528   0.09988   0.52567   0.00000  Uiso   1.00
H218   H     0.09219   0.80958   0.43650   0.00000  Uiso   1.00
H219   H     0.01702   0.97339   0.90242   0.00000  Uiso   1.00
H220   H     0.22400   0.23269   0.50767   0.00000  Uiso   1.00
H221   H     0.09096   0.62052   0.31965   0.00000  Uiso   1.00
O222   O     0.02709   0.89721   0.08268   0.00000  Uiso   1.00
O223   O     0.29864   0.23740   0.56477   0.00000  Uiso   1.00
O224   O     0.12410   0.43424   0.31810   0.00000  Uiso   1.00
N225   N     0.08352   0.83916   0.00212   0.00000  Uiso   1.00
N226   N     0.27703   0.08161   0.63306   0.00000  Uiso   1.00
N227   N     0.15266   0.50929   0.45726   0.00000  Uiso   1.00
N228   N     0.04125   0.93164   0.91752   0.00000  Uiso   1.00
N229   N     0.23476   0.17409   0.54847   0.00000  Uiso   1.00
N230   N     0.11039   0.60177   0.37267   0.00000  Uiso   1.00
C231   C     0.16699   0.31420   0.80607   0.00000  Uiso   1.00
C232   C     0.13472   0.28293   0.73388   0.00000  Uiso   1.00
C233   C     0.13344   0.30807   0.63436   0.00000  Uiso   1.00
C234   C     0.10143   0.27210   0.58086   0.00000  Uiso   1.00
C235   C     0.05584   0.23248   0.46198   0.00000  Uiso   1.00
C236   C     0.18238   0.21359   0.85068   0.00000  Uiso   1.00
C237   C     0.22118   0.18044   0.84937   0.00000  Uiso   1.00
C238   C     0.22929   0.08609   0.89419   0.00000  Uiso   1.00
C239   C     0.25770   0.93885   0.95671   0.00000  Uiso   1.00
C240   C     0.14646   0.37164   0.88982   0.00000  Uiso   1.00
C241   C     0.15507   0.47137   0.92145   0.00000  Uiso   1.00
C242   C     0.13295   0.51007   0.99926   0.00000  Uiso   1.00
C243   C     0.10559   0.60823   0.12255   0.00000  Uiso   1.00
C244   C     0.11240   0.20559   0.88803   0.00000  Uiso   1.00
C245   C     0.10506   0.22394   0.77840   0.00000  Uiso   1.00
C246   C     0.07304   0.18792   0.72503   0.00000  Uiso   1.00
C247   C     0.07172   0.21300   0.62545   0.00000  Uiso   1.00
C248   C     0.15273   0.15460   0.89519   0.00000  Uiso   1.00
C249   C     0.16078   0.06028   0.94004   0.00000  Uiso   1.00
C250   C     0.19959   0.02699   0.93879   0.00000  Uiso   1.00
C251   C     0.11681   0.31265   0.93434   0.00000  Uiso   1.00
C252   C     0.09467   0.35121   0.01212   0.00000  Uiso   1.00
C253   C     0.10324   0.45098   0.04385   0.00000  Uiso   1.00
H254   H     0.19008   0.36012   0.77142   0.00000  Uiso   1.00
H255   H     0.15640   0.35372   0.59994   0.00000  Uiso   1.00
H256   H     0.24413   0.22611   0.81492   0.00000  Uiso   1.00
H257   H     0.17802   0.51699   0.88699   0.00000  Uiso   1.00
H258   H     0.10599   0.32058   0.42944   0.00000  Uiso   1.00
H259   H     0.29097   0.05152   0.88277   0.00000  Uiso   1.00
H260   H     0.15158   0.66490   0.03474   0.00000  Uiso   1.00
H261   H     0.08931   0.15966   0.92269   0.00000  Uiso   1.00
H262   H     0.05010   0.14227   0.75950   0.00000  Uiso   1.00
H263   H     0.13783   0.01466   0.97448   0.00000  Uiso   1.00
H264   H     0.07172   0.30554   0.04655   0.00000  Uiso   1.00
H265   H     0.01971   0.14895   0.55894   0.00000  Uiso   1.00
H266   H     0.20469   0.87990   0.01228   0.00000  Uiso   1.00
H267   H     0.06530   0.49328   0.16425   0.00000  Uiso   1.00
O268   O     0.03888   0.22691   0.38411   0.00000  Uiso   1.00
O269   O     0.28157   0.87393   0.97888   0.00000  Uiso   1.00
O270   O     0.09869   0.67867   0.17825   0.00000  Uiso   1.00
N271   N     0.09106   0.28259   0.48232   0.00000  Uiso   1.00
N272   N     0.26401   0.03103   0.90614   0.00000  Uiso   1.00
N273   N     0.13369   0.60448   0.04824   0.00000  Uiso   1.00
N274   N     0.04464   0.19024   0.55200   0.00000  Uiso   1.00
N275   N     0.21758   0.93868   0.97583   0.00000  Uiso   1.00
N276   N     0.08727   0.51213   0.11792   0.00000  Uiso   1.00
C277   C     0.82523   0.19815   0.20495   0.00000  Uiso   1.00
C278   C     0.86071   0.16528   0.26617   0.00000  Uiso   1.00
C279   C     0.86699   0.18915   0.36477   0.00000  Uiso   1.00
C280   C     0.90128   0.15180   0.40748   0.00000  Uiso   1.00
C281   C     0.95225   0.10970   0.51078   0.00000  Uiso   1.00
C282   C     0.80738   0.09845   0.16447   0.00000  Uiso   1.00
C283   C     0.76882   0.06614   0.17755   0.00000  Uiso   1.00
C284   C     0.75821   0.97254   0.13464   0.00000  Uiso   1.00
C285   C     0.72638   0.82672   0.07998   0.00000  Uiso   1.00
C286   C     0.84166   0.25619   0.11603   0.00000  Uiso   1.00
C287   C     0.83192   0.35649   0.08837   0.00000  Uiso   1.00
C288   C     0.85016   0.39569   0.00466   0.00000  Uiso   1.00
C289   C     0.87155   0.49478   0.87479   0.00000  Uiso   1.00
C290   C     0.87493   0.08939   0.10546   0.00000  Uiso   1.00
C291   C     0.88771   0.10621   0.21213   0.00000  Uiso   1.00
C292   C     0.92199   0.06882   0.25470   0.00000  Uiso   1.00
C293   C     0.92833   0.09263   0.35335   0.00000  Uiso   1.00
C294   C     0.83437   0.03938   0.11043   0.00000  Uiso   1.00
C295   C     0.82381   0.94581   0.06748   0.00000  Uiso   1.00
C296   C     0.78525   0.91335   0.08050   0.00000  Uiso   1.00
C297   C     0.86866   0.19711   0.06199   0.00000  Uiso   1.00
C298   C     0.88691   0.23616   0.97830   0.00000  Uiso   1.00
C299   C     0.87721   0.33650   0.95052   0.00000  Uiso   1.00
H300   H     0.80420   0.24414   0.24702   0.00000  Uiso   1.00
H301   H     0.84609   0.23486   0.40657   0.00000  Uiso   1.00
H302   H     0.74793   0.11187   0.21937   0.00000  Uiso   1.00
H303   H     0.81102   0.40218   0.13020   0.00000  Uiso   1.00
H304   H     0.90443   0.19849   0.55964   0.00000  Uiso   1.00
H305   H     0.69745   0.93918   0.16489   0.00000  Uiso   1.00
H306   H     0.83049   0.55135   0.97686   0.00000  Uiso   1.00
H307   H     0.89595   0.04340   0.06339   0.00000  Uiso   1.00
H308   H     0.94288   0.02310   0.21286   0.00000  Uiso   1.00
H309   H     0.84472   0.90012   0.02567   0.00000  Uiso   1.00
H310   H     0.90781   0.19042   0.93650   0.00000  Uiso   1.00
H311   H     0.98298   0.02661   0.40242   0.00000  Uiso   1.00
H312   H     0.77600   0.76731   0.00767   0.00000  Uiso   1.00
H313   H     0.90904   0.37948   0.81965   0.00000  Uiso   1.00
O314   O     0.97291   0.10279   0.58268   0.00000  Uiso   1.00
O315   O     0.70136   0.76260   0.06477   0.00000  Uiso   1.00
O316   O     0.87590   0.56576   0.81810   0.00000  Uiso   1.00
N317   N     0.91648   0.16084   0.50212   0.00000  Uiso   1.00
N318   N     0.72297   0.91839   0.13306   0.00000  Uiso   1.00
N319   N     0.84734   0.49071   0.95726   0.00000  Uiso   1.00
N320   N     0.95875   0.06836   0.41752   0.00000  Uiso   1.00
N321   N     0.76524   0.82591   0.04847   0.00000  Uiso   1.00
N322   N     0.88961   0.39823   0.87267   0.00000  Uiso   1.00
C323   C     0.83301   0.68580   0.30607   0.00000  Uiso   1.00
C324   C     0.86528   0.71707   0.23388   0.00000  Uiso   1.00
C325   C     0.86656   0.69193   0.13436   0.00000  Uiso   1.00
C326   C     0.89857   0.72790   0.08086   0.00000  Uiso   1.00
C327   C     0.94416   0.76752   0.96198   0.00000  Uiso   1.00
C328   C     0.81762   0.78641   0.35068   0.00000  Uiso   1.00
C329   C     0.77882   0.81956   0.34937   0.00000  Uiso   1.00
C330   C     0.77071   0.91391   0.39419   0.00000  Uiso   1.00
C331   C     0.74230   0.06115   0.45671   0.00000  Uiso   1.00
C332   C     0.85354   0.62836   0.38982   0.00000  Uiso   1.00
C333   C     0.84493   0.52863   0.42145   0.00000  Uiso   1.00
C334   C     0.86705   0.48993   0.49926   0.00000  Uiso   1.00
C335   C     0.89441   0.39177   0.62255   0.00000  Uiso   1.00
C336   C     0.88760   0.79441   0.38803   0.00000  Uiso   1.00
C337   C     0.89494   0.77606   0.27840   0.00000  Uiso   1.00
C338   C     0.92696   0.81208   0.22503   0.00000  Uiso   1.00
C339   C     0.92828   0.78700   0.12545   0.00000  Uiso   1.00
C340   C     0.84727   0.84540   0.39519   0.00000  Uiso   1.00
C341   C     0.83922   0.93972   0.44004   0.00000  Uiso   1.00
C342   C     0.80041   0.97301   0.43879   0.00000  Uiso   1.00
C343   C     0.88319   0.68735   0.43434   0.00000  Uiso   1.00
C344   C     0.90533   0.64879   0.51212   0.00000  Uiso   1.00
C345   C     0.89676   0.54902   0.54385   0.00000  Uiso   1.00
H346   H     0.80992   0.63988   0.27142   0.00000  Uiso   1.00
H347   H     0.84360   0.64628   0.09994   0.00000  Uiso   1.00
H348   H     0.75587   0.77389   0.31492   0.00000  Uiso   1.00
H349   H     0.82198   0.48301   0.38699   0.00000  Uiso   1.00
H350   H     0.89401   0.67942   0.92944   0.00000  Uiso   1.00
H351   H     0.70903   0.94848   0.38277   0.00000  Uiso   1.00
H352   H     0.84842   0.33510   0.53474   0.00000  Uiso   1.00
H353   H     0.91069   0.84034   0.42269   0.00000  Uiso   1.00
H354   H     0.94990   0.85773   0.25950   0.00000  Uiso   1.00
H355   H     0.86217   0.98534   0.47448   0.00000  Uiso   1.00
H356   H     0.92828   0.69446   0.54655   0.00000  Uiso   1.00
H357   H     0.98029   0.85105   0.05894   0.00000  Uiso   1.00
H358   H     0.79531   0.12010   0.51228   0.00000  Uiso   1.00
H359   H     0.93470   0.50672   0.66425   0.00000  Uiso   1.00
O360   O     0.96112   0.77309   0.88411   0.00000  Uiso   1.00
O361   O     0.71843   0.12607   0.47888   0.00000  Uiso   1.00
O362   O     0.90131   0.32133   0.67825   0.00000  Uiso   1.00
N363   N     0.90894   0.71741   0.98232   0.00000  Uiso   1.00
N364   N     0.73599   0.96897   0.40614   0.00000  Uiso   1.00
N365   N     0.86631   0.39552   0.54824   0.00000  Uiso   1.00
N366   N     0.95536   0.80976   0.05200   0.00000  Uiso   1.00
N367   N     0.78242   0.06132   0.47583   0.00000  Uiso   1.00
N368   N     0.91273   0.48787   0.61792   0.00000  Uiso   1.00
