data_job_00969
_audit_creation_date              2018-12-19
_audit_creation_method            'Materials Studio'
_symmetry_space_group_name_H-M    'P1'
_symmetry_Int_Tables_number       1
_symmetry_cell_setting            triclinic
loop_
_symmetry_equiv_pos_as_xyz
  x,y,z
_cell_length_a                    25.1212
_cell_length_b                    19.0585
_cell_length_c                    12.7594
_cell_angle_alpha                 90.0000
_cell_angle_beta                  90.0000
_cell_angle_gamma                 90.0000
loop_
_atom_site_label
_atom_site_type_symbol
_atom_site_fract_x
_atom_site_fract_y
_atom_site_fract_z
_atom_site_U_iso_or_equiv
_atom_site_adp_type
_atom_site_occupancy
C1     C     0.35612   0.10224   0.29772   0.00000  Uiso   1.00
C2     C     0.38447   0.11470   0.40175   0.00000  Uiso   1.00
C3     C     0.40860   0.17685   0.43263   0.00000  Uiso   1.00
C4     C     0.43242   0.17764   0.53081   0.00000  Uiso   1.00
C5     C     0.47651   0.20599   0.68245   0.00000  Uiso   1.00
C6     C     0.38347   0.03913   0.24776   0.00000  Uiso   1.00
C7     C     0.40677   0.03774   0.14916   0.00000  Uiso   1.00
C8     C     0.42975   0.97492   0.11771   0.00000  Uiso   1.00
C9     C     0.47227   0.88593   0.03025   0.00000  Uiso   1.00
C10    C     0.29999   0.07813   0.32551   0.00000  Uiso   1.00
C11    C     0.25309   0.10952   0.29226   0.00000  Uiso   1.00
C12    C     0.20577   0.07951   0.32625   0.00000  Uiso   1.00
C13    C     0.11866   0.05107   0.35950   0.00000  Uiso   1.00
C14    C     0.35549   0.99314   0.41719   0.00000  Uiso   1.00
C15    C     0.38412   0.05543   0.46664   0.00000  Uiso   1.00
C16    C     0.40791   0.05613   0.56480   0.00000  Uiso   1.00
C17    C     0.43208   0.11828   0.59582   0.00000  Uiso   1.00
C18    C     0.38313   0.97987   0.31265   0.00000  Uiso   1.00
C19    C     0.40608   0.91703   0.28133   0.00000  Uiso   1.00
C20    C     0.42941   0.91555   0.18271   0.00000  Uiso   1.00
C21    C     0.29964   0.01887   0.39040   0.00000  Uiso   1.00
C22    C     0.25239   0.98881   0.42444   0.00000  Uiso   1.00
C23    C     0.20543   0.02014   0.39125   0.00000  Uiso   1.00
H24    H     0.35639   0.14838   0.24720   0.00000  Uiso   1.00
H25    H     0.40887   0.22270   0.38238   0.00000  Uiso   1.00
H26    H     0.40703   0.08361   0.09896   0.00000  Uiso   1.00
H27    H     0.25337   0.15537   0.24204   0.00000  Uiso   1.00
H28    H     0.46691   0.27895   0.56087   0.00000  Uiso   1.00
H29    H     0.46302   0.98567   0.96323   0.00000  Uiso   1.00
H30    H     0.13900   0.13700   0.26495   0.00000  Uiso   1.00
H31    H     0.35522   0.94700   0.46771   0.00000  Uiso   1.00
H32    H     0.40764   0.01027   0.61500   0.00000  Uiso   1.00
H33    H     0.40580   0.87118   0.33157   0.00000  Uiso   1.00
H34    H     0.25214   0.94295   0.47465   0.00000  Uiso   1.00
H35    H     0.46592   0.10653   0.74966   0.00000  Uiso   1.00
H36    H     0.46203   0.81325   0.15202   0.00000  Uiso   1.00
H37    H     0.13801   0.96459   0.45374   0.00000  Uiso   1.00
O38    O     0.50093   0.23799   0.74817   0.00000  Uiso   1.00
O39    O     0.49582   0.85322   0.96408   0.00000  Uiso   1.00
O40    O     0.07071   0.05176   0.35993   0.00000  Uiso   1.00
N41    N     0.45948   0.22969   0.58509   0.00000  Uiso   1.00
N42    N     0.45585   0.95550   0.02634   0.00000  Uiso   1.00
N43    N     0.15291   0.09697   0.30840   0.00000  Uiso   1.00
N44    N     0.45894   0.13692   0.68669   0.00000  Uiso   1.00
N45    N     0.45531   0.86272   0.12794   0.00000  Uiso   1.00
N46    N     0.15238   0.00419   0.40999   0.00000  Uiso   1.00
C47    C     0.14388   0.39776   0.29772   0.00000  Uiso   1.00
C48    C     0.11553   0.38530   0.40175   0.00000  Uiso   1.00
C49    C     0.09140   0.32315   0.43263   0.00000  Uiso   1.00
C50    C     0.06758   0.32236   0.53081   0.00000  Uiso   1.00
C51    C     0.02349   0.29401   0.68245   0.00000  Uiso   1.00
C52    C     0.11653   0.46087   0.24776   0.00000  Uiso   1.00
C53    C     0.09323   0.46226   0.14916   0.00000  Uiso   1.00
C54    C     0.07025   0.52508   0.11771   0.00000  Uiso   1.00
C55    C     0.02773   0.61407   0.03025   0.00000  Uiso   1.00
C56    C     0.20001   0.42187   0.32551   0.00000  Uiso   1.00
C57    C     0.24691   0.39048   0.29226   0.00000  Uiso   1.00
C58    C     0.29423   0.42049   0.32625   0.00000  Uiso   1.00
C59    C     0.38134   0.44893   0.35950   0.00000  Uiso   1.00
C60    C     0.14451   0.50686   0.41719   0.00000  Uiso   1.00
C61    C     0.11588   0.44457   0.46664   0.00000  Uiso   1.00
C62    C     0.09209   0.44387   0.56480   0.00000  Uiso   1.00
C63    C     0.06792   0.38172   0.59582   0.00000  Uiso   1.00
C64    C     0.11687   0.52013   0.31265   0.00000  Uiso   1.00
C65    C     0.09392   0.58297   0.28133   0.00000  Uiso   1.00
C66    C     0.07059   0.58445   0.18271   0.00000  Uiso   1.00
C67    C     0.20036   0.48113   0.39040   0.00000  Uiso   1.00
C68    C     0.24761   0.51119   0.42444   0.00000  Uiso   1.00
C69    C     0.29457   0.47986   0.39125   0.00000  Uiso   1.00
H70    H     0.14361   0.35162   0.24720   0.00000  Uiso   1.00
H71    H     0.09113   0.27730   0.38238   0.00000  Uiso   1.00
H72    H     0.09297   0.41639   0.09896   0.00000  Uiso   1.00
H73    H     0.24663   0.34463   0.24204   0.00000  Uiso   1.00
H74    H     0.03309   0.22105   0.56087   0.00000  Uiso   1.00
H75    H     0.03698   0.51433   0.96323   0.00000  Uiso   1.00
H76    H     0.36100   0.36300   0.26495   0.00000  Uiso   1.00
H77    H     0.14478   0.55300   0.46771   0.00000  Uiso   1.00
H78    H     0.09236   0.48973   0.61500   0.00000  Uiso   1.00
H79    H     0.09420   0.62882   0.33157   0.00000  Uiso   1.00
H80    H     0.24786   0.55705   0.47465   0.00000  Uiso   1.00
H81    H     0.03408   0.39347   0.74966   0.00000  Uiso   1.00
H82    H     0.03797   0.68675   0.15202   0.00000  Uiso   1.00
H83    H     0.36199   0.53541   0.45374   0.00000  Uiso   1.00
O84    O     0.99907   0.26201   0.74817   0.00000  Uiso   1.00
O85    O     0.00418   0.64678   0.96408   0.00000  Uiso   1.00
O86    O     0.42929   0.44824   0.35993   0.00000  Uiso   1.00
N87    N     0.04052   0.27031   0.58509   0.00000  Uiso   1.00
N88    N     0.04415   0.54450   0.02634   0.00000  Uiso   1.00
N89    N     0.34709   0.40303   0.30840   0.00000  Uiso   1.00
N90    N     0.04106   0.36308   0.68669   0.00000  Uiso   1.00
N91    N     0.04469   0.63728   0.12794   0.00000  Uiso   1.00
N92    N     0.34762   0.49581   0.40999   0.00000  Uiso   1.00
C93    C     0.64388   0.60224   0.20228   0.00000  Uiso   1.00
C94    C     0.61553   0.61470   0.09825   0.00000  Uiso   1.00
C95    C     0.59140   0.67685   0.06737   0.00000  Uiso   1.00
C96    C     0.56758   0.67764   0.96919   0.00000  Uiso   1.00
C97    C     0.52349   0.70599   0.81755   0.00000  Uiso   1.00
C98    C     0.61653   0.53913   0.25224   0.00000  Uiso   1.00
C99    C     0.59323   0.53774   0.35084   0.00000  Uiso   1.00
C100   C     0.57025   0.47492   0.38229   0.00000  Uiso   1.00
C101   C     0.52773   0.38593   0.46975   0.00000  Uiso   1.00
C102   C     0.70001   0.57813   0.17449   0.00000  Uiso   1.00
C103   C     0.74691   0.60952   0.20774   0.00000  Uiso   1.00
C104   C     0.79423   0.57951   0.17375   0.00000  Uiso   1.00
C105   C     0.88134   0.55107   0.14050   0.00000  Uiso   1.00
C106   C     0.64451   0.49314   0.08281   0.00000  Uiso   1.00
C107   C     0.61588   0.55543   0.03336   0.00000  Uiso   1.00
C108   C     0.59209   0.55613   0.93520   0.00000  Uiso   1.00
C109   C     0.56792   0.61828   0.90418   0.00000  Uiso   1.00
C110   C     0.61687   0.47987   0.18735   0.00000  Uiso   1.00
C111   C     0.59392   0.41703   0.21867   0.00000  Uiso   1.00
C112   C     0.57059   0.41555   0.31729   0.00000  Uiso   1.00
C113   C     0.70036   0.51887   0.10960   0.00000  Uiso   1.00
C114   C     0.74761   0.48881   0.07556   0.00000  Uiso   1.00
C115   C     0.79457   0.52014   0.10875   0.00000  Uiso   1.00
H116   H     0.64361   0.64838   0.25280   0.00000  Uiso   1.00
H117   H     0.59113   0.72270   0.11762   0.00000  Uiso   1.00
H118   H     0.59297   0.58361   0.40104   0.00000  Uiso   1.00
H119   H     0.74663   0.65537   0.25796   0.00000  Uiso   1.00
H120   H     0.53309   0.77895   0.93913   0.00000  Uiso   1.00
H121   H     0.53698   0.48567   0.53677   0.00000  Uiso   1.00
H122   H     0.86100   0.63700   0.23505   0.00000  Uiso   1.00
H123   H     0.64478   0.44700   0.03229   0.00000  Uiso   1.00
H124   H     0.59236   0.51027   0.88500   0.00000  Uiso   1.00
H125   H     0.59420   0.37118   0.16843   0.00000  Uiso   1.00
H126   H     0.74786   0.44295   0.02535   0.00000  Uiso   1.00
H127   H     0.53408   0.60653   0.75034   0.00000  Uiso   1.00
H128   H     0.53797   0.31325   0.34798   0.00000  Uiso   1.00
H129   H     0.86199   0.46459   0.04626   0.00000  Uiso   1.00
O130   O     0.49907   0.73799   0.75183   0.00000  Uiso   1.00
O131   O     0.50418   0.35322   0.53592   0.00000  Uiso   1.00
O132   O     0.92929   0.55176   0.14007   0.00000  Uiso   1.00
N133   N     0.54052   0.72969   0.91491   0.00000  Uiso   1.00
N134   N     0.54415   0.45550   0.47366   0.00000  Uiso   1.00
N135   N     0.84709   0.59697   0.19160   0.00000  Uiso   1.00
N136   N     0.54106   0.63692   0.81331   0.00000  Uiso   1.00
N137   N     0.54469   0.36272   0.37206   0.00000  Uiso   1.00
N138   N     0.84762   0.50419   0.09001   0.00000  Uiso   1.00
C139   C     0.85612   0.89776   0.20228   0.00000  Uiso   1.00
C140   C     0.88447   0.88530   0.09825   0.00000  Uiso   1.00
C141   C     0.90860   0.82315   0.06737   0.00000  Uiso   1.00
C142   C     0.93242   0.82236   0.96919   0.00000  Uiso   1.00
C143   C     0.97651   0.79401   0.81755   0.00000  Uiso   1.00
C144   C     0.88347   0.96087   0.25224   0.00000  Uiso   1.00
C145   C     0.90677   0.96226   0.35084   0.00000  Uiso   1.00
C146   C     0.92975   0.02508   0.38229   0.00000  Uiso   1.00
C147   C     0.97227   0.11407   0.46975   0.00000  Uiso   1.00
C148   C     0.79999   0.92187   0.17449   0.00000  Uiso   1.00
C149   C     0.75309   0.89048   0.20774   0.00000  Uiso   1.00
C150   C     0.70577   0.92049   0.17375   0.00000  Uiso   1.00
C151   C     0.61866   0.94893   0.14050   0.00000  Uiso   1.00
C152   C     0.85549   0.00686   0.08281   0.00000  Uiso   1.00
C153   C     0.88412   0.94457   0.03336   0.00000  Uiso   1.00
C154   C     0.90791   0.94387   0.93520   0.00000  Uiso   1.00
C155   C     0.93208   0.88172   0.90418   0.00000  Uiso   1.00
C156   C     0.88313   0.02013   0.18735   0.00000  Uiso   1.00
C157   C     0.90608   0.08297   0.21867   0.00000  Uiso   1.00
C158   C     0.92941   0.08445   0.31729   0.00000  Uiso   1.00
C159   C     0.79964   0.98113   0.10960   0.00000  Uiso   1.00
C160   C     0.75239   0.01119   0.07556   0.00000  Uiso   1.00
C161   C     0.70543   0.97986   0.10875   0.00000  Uiso   1.00
H162   H     0.85639   0.85162   0.25280   0.00000  Uiso   1.00
H163   H     0.90887   0.77730   0.11762   0.00000  Uiso   1.00
H164   H     0.90703   0.91639   0.40104   0.00000  Uiso   1.00
H165   H     0.75337   0.84463   0.25796   0.00000  Uiso   1.00
H166   H     0.96691   0.72105   0.93913   0.00000  Uiso   1.00
H167   H     0.96302   0.01433   0.53677   0.00000  Uiso   1.00
H168   H     0.63900   0.86300   0.23505   0.00000  Uiso   1.00
H169   H     0.85522   0.05300   0.03229   0.00000  Uiso   1.00
H170   H     0.90764   0.98973   0.88500   0.00000  Uiso   1.00
H171   H     0.90580   0.12882   0.16843   0.00000  Uiso   1.00
H172   H     0.75214   0.05705   0.02535   0.00000  Uiso   1.00
H173   H     0.96592   0.89347   0.75034   0.00000  Uiso   1.00
H174   H     0.96203   0.18675   0.34798   0.00000  Uiso   1.00
H175   H     0.63801   0.03541   0.04626   0.00000  Uiso   1.00
O176   O     0.00093   0.76201   0.75183   0.00000  Uiso   1.00
O177   O     0.99582   0.14678   0.53592   0.00000  Uiso   1.00
O178   O     0.57071   0.94824   0.14007   0.00000  Uiso   1.00
N179   N     0.95948   0.77031   0.91491   0.00000  Uiso   1.00
N180   N     0.95585   0.04450   0.47366   0.00000  Uiso   1.00
N181   N     0.65291   0.90303   0.19160   0.00000  Uiso   1.00
N182   N     0.95894   0.86308   0.81331   0.00000  Uiso   1.00
N183   N     0.95531   0.13728   0.37206   0.00000  Uiso   1.00
N184   N     0.65238   0.99581   0.09001   0.00000  Uiso   1.00
C185   C     0.64388   0.89776   0.70228   0.00000  Uiso   1.00
C186   C     0.61553   0.88530   0.59825   0.00000  Uiso   1.00
C187   C     0.59140   0.82315   0.56737   0.00000  Uiso   1.00
C188   C     0.56758   0.82236   0.46919   0.00000  Uiso   1.00
C189   C     0.52349   0.79401   0.31755   0.00000  Uiso   1.00
C190   C     0.61653   0.96087   0.75224   0.00000  Uiso   1.00
C191   C     0.59323   0.96226   0.85084   0.00000  Uiso   1.00
C192   C     0.57025   0.02508   0.88229   0.00000  Uiso   1.00
C193   C     0.52773   0.11407   0.96975   0.00000  Uiso   1.00
C194   C     0.70001   0.92187   0.67449   0.00000  Uiso   1.00
C195   C     0.74691   0.89048   0.70774   0.00000  Uiso   1.00
C196   C     0.79423   0.92049   0.67375   0.00000  Uiso   1.00
C197   C     0.88134   0.94893   0.64050   0.00000  Uiso   1.00
C198   C     0.64451   0.00686   0.58281   0.00000  Uiso   1.00
C199   C     0.61588   0.94457   0.53336   0.00000  Uiso   1.00
C200   C     0.59209   0.94387   0.43520   0.00000  Uiso   1.00
C201   C     0.56792   0.88172   0.40418   0.00000  Uiso   1.00
C202   C     0.61687   0.02013   0.68735   0.00000  Uiso   1.00
C203   C     0.59392   0.08297   0.71867   0.00000  Uiso   1.00
C204   C     0.57059   0.08445   0.81729   0.00000  Uiso   1.00
C205   C     0.70036   0.98113   0.60960   0.00000  Uiso   1.00
C206   C     0.74761   0.01119   0.57556   0.00000  Uiso   1.00
C207   C     0.79457   0.97986   0.60875   0.00000  Uiso   1.00
H208   H     0.64361   0.85162   0.75280   0.00000  Uiso   1.00
H209   H     0.59113   0.77730   0.61762   0.00000  Uiso   1.00
H210   H     0.59297   0.91639   0.90104   0.00000  Uiso   1.00
H211   H     0.74663   0.84463   0.75796   0.00000  Uiso   1.00
H212   H     0.53309   0.72105   0.43913   0.00000  Uiso   1.00
H213   H     0.53698   0.01433   0.03677   0.00000  Uiso   1.00
H214   H     0.86100   0.86300   0.73505   0.00000  Uiso   1.00
H215   H     0.64478   0.05300   0.53229   0.00000  Uiso   1.00
H216   H     0.59236   0.98973   0.38500   0.00000  Uiso   1.00
H217   H     0.59420   0.12882   0.66843   0.00000  Uiso   1.00
H218   H     0.74786   0.05705   0.52535   0.00000  Uiso   1.00
H219   H     0.53408   0.89347   0.25034   0.00000  Uiso   1.00
H220   H     0.53797   0.18675   0.84798   0.00000  Uiso   1.00
H221   H     0.86199   0.03541   0.54626   0.00000  Uiso   1.00
O222   O     0.49907   0.76201   0.25183   0.00000  Uiso   1.00
O223   O     0.50418   0.14678   0.03592   0.00000  Uiso   1.00
O224   O     0.92929   0.94824   0.64007   0.00000  Uiso   1.00
N225   N     0.54052   0.77031   0.41491   0.00000  Uiso   1.00
N226   N     0.54415   0.04450   0.97366   0.00000  Uiso   1.00
N227   N     0.84709   0.90303   0.69160   0.00000  Uiso   1.00
N228   N     0.54106   0.86308   0.31331   0.00000  Uiso   1.00
N229   N     0.54469   0.13728   0.87206   0.00000  Uiso   1.00
N230   N     0.84762   0.99581   0.59001   0.00000  Uiso   1.00
C231   C     0.85612   0.60224   0.70228   0.00000  Uiso   1.00
C232   C     0.88447   0.61470   0.59825   0.00000  Uiso   1.00
C233   C     0.90860   0.67685   0.56737   0.00000  Uiso   1.00
C234   C     0.93242   0.67764   0.46919   0.00000  Uiso   1.00
C235   C     0.97651   0.70599   0.31755   0.00000  Uiso   1.00
C236   C     0.88347   0.53913   0.75224   0.00000  Uiso   1.00
C237   C     0.90677   0.53774   0.85084   0.00000  Uiso   1.00
C238   C     0.92975   0.47492   0.88229   0.00000  Uiso   1.00
C239   C     0.97227   0.38593   0.96975   0.00000  Uiso   1.00
C240   C     0.79999   0.57813   0.67449   0.00000  Uiso   1.00
C241   C     0.75309   0.60952   0.70774   0.00000  Uiso   1.00
C242   C     0.70577   0.57951   0.67375   0.00000  Uiso   1.00
C243   C     0.61866   0.55107   0.64050   0.00000  Uiso   1.00
C244   C     0.85549   0.49314   0.58281   0.00000  Uiso   1.00
C245   C     0.88412   0.55543   0.53336   0.00000  Uiso   1.00
C246   C     0.90791   0.55613   0.43520   0.00000  Uiso   1.00
C247   C     0.93208   0.61828   0.40418   0.00000  Uiso   1.00
C248   C     0.88313   0.47987   0.68735   0.00000  Uiso   1.00
C249   C     0.90608   0.41703   0.71867   0.00000  Uiso   1.00
C250   C     0.92941   0.41555   0.81729   0.00000  Uiso   1.00
C251   C     0.79964   0.51887   0.60960   0.00000  Uiso   1.00
C252   C     0.75239   0.48881   0.57556   0.00000  Uiso   1.00
C253   C     0.70543   0.52014   0.60875   0.00000  Uiso   1.00
H254   H     0.85639   0.64838   0.75280   0.00000  Uiso   1.00
H255   H     0.90887   0.72270   0.61762   0.00000  Uiso   1.00
H256   H     0.90703   0.58361   0.90104   0.00000  Uiso   1.00
H257   H     0.75337   0.65537   0.75796   0.00000  Uiso   1.00
H258   H     0.96691   0.77895   0.43913   0.00000  Uiso   1.00
H259   H     0.96302   0.48567   0.03677   0.00000  Uiso   1.00
H260   H     0.63900   0.63700   0.73505   0.00000  Uiso   1.00
H261   H     0.85522   0.44700   0.53229   0.00000  Uiso   1.00
H262   H     0.90764   0.51027   0.38500   0.00000  Uiso   1.00
H263   H     0.90580   0.37118   0.66843   0.00000  Uiso   1.00
H264   H     0.75214   0.44295   0.52535   0.00000  Uiso   1.00
H265   H     0.96592   0.60653   0.25034   0.00000  Uiso   1.00
H266   H     0.96203   0.31325   0.84798   0.00000  Uiso   1.00
H267   H     0.63801   0.46459   0.54626   0.00000  Uiso   1.00
O268   O     0.00093   0.73799   0.25183   0.00000  Uiso   1.00
O269   O     0.99582   0.35322   0.03592   0.00000  Uiso   1.00
O270   O     0.57071   0.55176   0.64007   0.00000  Uiso   1.00
N271   N     0.95948   0.72969   0.41491   0.00000  Uiso   1.00
N272   N     0.95585   0.45550   0.97366   0.00000  Uiso   1.00
N273   N     0.65291   0.59697   0.69160   0.00000  Uiso   1.00
N274   N     0.95894   0.63692   0.31331   0.00000  Uiso   1.00
N275   N     0.95531   0.36272   0.87206   0.00000  Uiso   1.00
N276   N     0.65238   0.50419   0.59001   0.00000  Uiso   1.00
C277   C     0.35612   0.39776   0.79772   0.00000  Uiso   1.00
C278   C     0.38447   0.38530   0.90175   0.00000  Uiso   1.00
C279   C     0.40860   0.32315   0.93263   0.00000  Uiso   1.00
C280   C     0.43242   0.32236   0.03081   0.00000  Uiso   1.00
C281   C     0.47651   0.29401   0.18245   0.00000  Uiso   1.00
C282   C     0.38347   0.46087   0.74776   0.00000  Uiso   1.00
C283   C     0.40677   0.46226   0.64916   0.00000  Uiso   1.00
C284   C     0.42975   0.52508   0.61771   0.00000  Uiso   1.00
C285   C     0.47227   0.61407   0.53025   0.00000  Uiso   1.00
C286   C     0.29999   0.42187   0.82551   0.00000  Uiso   1.00
C287   C     0.25309   0.39048   0.79226   0.00000  Uiso   1.00
C288   C     0.20577   0.42049   0.82625   0.00000  Uiso   1.00
C289   C     0.11866   0.44893   0.85950   0.00000  Uiso   1.00
C290   C     0.35549   0.50686   0.91719   0.00000  Uiso   1.00
C291   C     0.38412   0.44457   0.96664   0.00000  Uiso   1.00
C292   C     0.40791   0.44387   0.06480   0.00000  Uiso   1.00
C293   C     0.43208   0.38172   0.09582   0.00000  Uiso   1.00
C294   C     0.38313   0.52013   0.81265   0.00000  Uiso   1.00
C295   C     0.40608   0.58297   0.78133   0.00000  Uiso   1.00
C296   C     0.42941   0.58445   0.68271   0.00000  Uiso   1.00
C297   C     0.29964   0.48113   0.89040   0.00000  Uiso   1.00
C298   C     0.25239   0.51119   0.92444   0.00000  Uiso   1.00
C299   C     0.20543   0.47986   0.89125   0.00000  Uiso   1.00
H300   H     0.35639   0.35162   0.74720   0.00000  Uiso   1.00
H301   H     0.40887   0.27730   0.88238   0.00000  Uiso   1.00
H302   H     0.40703   0.41639   0.59896   0.00000  Uiso   1.00
H303   H     0.25337   0.34463   0.74204   0.00000  Uiso   1.00
H304   H     0.46691   0.22105   0.06087   0.00000  Uiso   1.00
H305   H     0.46302   0.51433   0.46323   0.00000  Uiso   1.00
H306   H     0.13900   0.36300   0.76495   0.00000  Uiso   1.00
H307   H     0.35522   0.55300   0.96771   0.00000  Uiso   1.00
H308   H     0.40764   0.48973   0.11500   0.00000  Uiso   1.00
H309   H     0.40580   0.62882   0.83157   0.00000  Uiso   1.00
H310   H     0.25214   0.55705   0.97465   0.00000  Uiso   1.00
H311   H     0.46592   0.39347   0.24966   0.00000  Uiso   1.00
H312   H     0.46203   0.68675   0.65202   0.00000  Uiso   1.00
H313   H     0.13801   0.53541   0.95374   0.00000  Uiso   1.00
O314   O     0.50093   0.26201   0.24817   0.00000  Uiso   1.00
O315   O     0.49582   0.64678   0.46408   0.00000  Uiso   1.00
O316   O     0.07071   0.44824   0.85993   0.00000  Uiso   1.00
N317   N     0.45948   0.27031   0.08509   0.00000  Uiso   1.00
N318   N     0.45585   0.54450   0.52634   0.00000  Uiso   1.00
N319   N     0.15291   0.40303   0.80840   0.00000  Uiso   1.00
N320   N     0.45894   0.36308   0.18669   0.00000  Uiso   1.00
N321   N     0.45531   0.63728   0.62794   0.00000  Uiso   1.00
N322   N     0.15238   0.49581   0.90999   0.00000  Uiso   1.00
C323   C     0.14388   0.10224   0.79772   0.00000  Uiso   1.00
C324   C     0.11553   0.11470   0.90175   0.00000  Uiso   1.00
C325   C     0.09140   0.17685   0.93263   0.00000  Uiso   1.00
C326   C     0.06758   0.17764   0.03081   0.00000  Uiso   1.00
C327   C     0.02349   0.20599   0.18245   0.00000  Uiso   1.00
C328   C     0.11653   0.03913   0.74776   0.00000  Uiso   1.00
C329   C     0.09323   0.03774   0.64916   0.00000  Uiso   1.00
C330   C     0.07025   0.97492   0.61771   0.00000  Uiso   1.00
C331   C     0.02773   0.88593   0.53025   0.00000  Uiso   1.00
C332   C     0.20001   0.07813   0.82551   0.00000  Uiso   1.00
C333   C     0.24691   0.10952   0.79226   0.00000  Uiso   1.00
C334   C     0.29423   0.07951   0.82625   0.00000  Uiso   1.00
C335   C     0.38134   0.05107   0.85950   0.00000  Uiso   1.00
C336   C     0.14451   0.99314   0.91719   0.00000  Uiso   1.00
C337   C     0.11588   0.05543   0.96664   0.00000  Uiso   1.00
C338   C     0.09209   0.05613   0.06480   0.00000  Uiso   1.00
C339   C     0.06792   0.11828   0.09582   0.00000  Uiso   1.00
C340   C     0.11687   0.97987   0.81265   0.00000  Uiso   1.00
C341   C     0.09392   0.91703   0.78133   0.00000  Uiso   1.00
C342   C     0.07059   0.91555   0.68271   0.00000  Uiso   1.00
C343   C     0.20036   0.01887   0.89040   0.00000  Uiso   1.00
C344   C     0.24761   0.98881   0.92444   0.00000  Uiso   1.00
C345   C     0.29457   0.02014   0.89125   0.00000  Uiso   1.00
H346   H     0.14361   0.14838   0.74720   0.00000  Uiso   1.00
H347   H     0.09113   0.22270   0.88238   0.00000  Uiso   1.00
H348   H     0.09297   0.08361   0.59896   0.00000  Uiso   1.00
H349   H     0.24663   0.15537   0.74204   0.00000  Uiso   1.00
H350   H     0.03309   0.27895   0.06087   0.00000  Uiso   1.00
H351   H     0.03698   0.98567   0.46323   0.00000  Uiso   1.00
H352   H     0.36100   0.13700   0.76495   0.00000  Uiso   1.00
H353   H     0.14478   0.94700   0.96771   0.00000  Uiso   1.00
H354   H     0.09236   0.01027   0.11500   0.00000  Uiso   1.00
H355   H     0.09420   0.87118   0.83157   0.00000  Uiso   1.00
H356   H     0.24786   0.94295   0.97465   0.00000  Uiso   1.00
H357   H     0.03408   0.10653   0.24966   0.00000  Uiso   1.00
H358   H     0.03797   0.81325   0.65202   0.00000  Uiso   1.00
H359   H     0.36199   0.96459   0.95374   0.00000  Uiso   1.00
O360   O     0.99907   0.23799   0.24817   0.00000  Uiso   1.00
O361   O     0.00418   0.85322   0.46408   0.00000  Uiso   1.00
O362   O     0.42929   0.05176   0.85993   0.00000  Uiso   1.00
N363   N     0.04052   0.22969   0.08509   0.00000  Uiso   1.00
N364   N     0.04415   0.95550   0.52634   0.00000  Uiso   1.00
N365   N     0.34709   0.09697   0.80840   0.00000  Uiso   1.00
N366   N     0.04106   0.13692   0.18669   0.00000  Uiso   1.00
N367   N     0.04469   0.86272   0.62794   0.00000  Uiso   1.00
N368   N     0.34762   0.00419   0.90999   0.00000  Uiso   1.00
