data_job_05029
_audit_creation_date              2018-12-19
_audit_creation_method            'Materials Studio'
_symmetry_space_group_name_H-M    'P1'
_symmetry_Int_Tables_number       1
_symmetry_cell_setting            triclinic
loop_
_symmetry_equiv_pos_as_xyz
  x,y,z
_cell_length_a                    17.3573
_cell_length_b                    10.3367
_cell_length_c                    13.5991
_cell_angle_alpha                 90.0000
_cell_angle_beta                  78.0580
_cell_angle_gamma                 90.0000
loop_
_atom_site_label
_atom_site_type_symbol
_atom_site_fract_x
_atom_site_fract_y
_atom_site_fract_z
_atom_site_U_iso_or_equiv
_atom_site_adp_type
_atom_site_occupancy
C1     C     0.20848   0.35767   0.44642   0.00000  Uiso   1.00
C2     C     0.21924   0.44819   0.53110   0.00000  Uiso   1.00
C3     C     0.23122   0.58082   0.52275   0.00000  Uiso   1.00
C4     C     0.23975   0.64642   0.60894   0.00000  Uiso   1.00
C5     C     0.25700   0.79683   0.72654   0.00000  Uiso   1.00
C6     C     0.27188   0.25404   0.43976   0.00000  Uiso   1.00
C7     C     0.32811   0.22342   0.35460   0.00000  Uiso   1.00
C8     C     0.38094   0.12558   0.36391   0.00000  Uiso   1.00
C9     C     0.47989   0.97450   0.33968   0.00000  Uiso   1.00
C10    C     0.13009   0.28899   0.48349   0.00000  Uiso   1.00
C11    C     0.06712   0.28774   0.43508   0.00000  Uiso   1.00
C12    C     0.00058   0.21930   0.48119   0.00000  Uiso   1.00
C13    C     0.87938   0.12249   0.52485   0.00000  Uiso   1.00
C14    C     0.20230   0.23833   0.61436   0.00000  Uiso   1.00
C15    C     0.21589   0.38336   0.62232   0.00000  Uiso   1.00
C16    C     0.22439   0.44878   0.70855   0.00000  Uiso   1.00
C17    C     0.23638   0.58149   0.70033   0.00000  Uiso   1.00
C18    C     0.26853   0.18922   0.53097   0.00000  Uiso   1.00
C19    C     0.32128   0.09139   0.54041   0.00000  Uiso   1.00
C20    C     0.37758   0.06064   0.45529   0.00000  Uiso   1.00
C21    C     0.12674   0.22417   0.57470   0.00000  Uiso   1.00
C22    C     0.06028   0.15571   0.62089   0.00000  Uiso   1.00
C23    C     0.99722   0.15436   0.57257   0.00000  Uiso   1.00
H24    H     0.21109   0.40813   0.37540   0.00000  Uiso   1.00
H25    H     0.23382   0.63094   0.45214   0.00000  Uiso   1.00
H26    H     0.33069   0.27359   0.28402   0.00000  Uiso   1.00
H27    H     0.06973   0.33791   0.36450   0.00000  Uiso   1.00
H28    H     0.25757   0.84938   0.57743   0.00000  Uiso   1.00
H29    H     0.46180   0.09587   0.22294   0.00000  Uiso   1.00
H30    H     0.91153   0.23148   0.39263   0.00000  Uiso   1.00
H31    H     0.19969   0.18786   0.68538   0.00000  Uiso   1.00
H32    H     0.22179   0.39859   0.77913   0.00000  Uiso   1.00
H33    H     0.31866   0.04124   0.61101   0.00000  Uiso   1.00
H34    H     0.05771   0.10556   0.69148   0.00000  Uiso   1.00
H35    H     0.24781   0.66080   0.84283   0.00000  Uiso   1.00
H36    H     0.45205   0.90728   0.48833   0.00000  Uiso   1.00
H37    H     0.90177   0.04289   0.65803   0.00000  Uiso   1.00
O38    O     0.26746   0.89769   0.76620   0.00000  Uiso   1.00
O39    O     0.53540   0.90909   0.30112   0.00000  Uiso   1.00
O40    O     0.81345   0.08702   0.52375   0.00000  Uiso   1.00
N41    N     0.25222   0.77608   0.62703   0.00000  Uiso   1.00
N42    N     0.44318   0.07160   0.29561   0.00000  Uiso   1.00
N43    N     0.92873   0.19836   0.45424   0.00000  Uiso   1.00
N44    N     0.24697   0.67461   0.76984   0.00000  Uiso   1.00
N45    N     0.43793   0.97013   0.43842   0.00000  Uiso   1.00
N46    N     0.92347   0.09689   0.59705   0.00000  Uiso   1.00
C47    C     0.79152   0.85767   0.05358   0.00000  Uiso   1.00
C48    C     0.78076   0.94819   0.96890   0.00000  Uiso   1.00
C49    C     0.76878   0.08082   0.97725   0.00000  Uiso   1.00
C50    C     0.76025   0.14642   0.89106   0.00000  Uiso   1.00
C51    C     0.74300   0.29683   0.77346   0.00000  Uiso   1.00
C52    C     0.72812   0.75404   0.06024   0.00000  Uiso   1.00
C53    C     0.67189   0.72342   0.14540   0.00000  Uiso   1.00
C54    C     0.61906   0.62558   0.13609   0.00000  Uiso   1.00
C55    C     0.52011   0.47450   0.16032   0.00000  Uiso   1.00
C56    C     0.86991   0.78899   0.01651   0.00000  Uiso   1.00
C57    C     0.93288   0.78774   0.06492   0.00000  Uiso   1.00
C58    C     0.99942   0.71930   0.01881   0.00000  Uiso   1.00
C59    C     0.12062   0.62249   0.97515   0.00000  Uiso   1.00
C60    C     0.79770   0.73833   0.88564   0.00000  Uiso   1.00
C61    C     0.78411   0.88336   0.87768   0.00000  Uiso   1.00
C62    C     0.77561   0.94878   0.79145   0.00000  Uiso   1.00
C63    C     0.76362   0.08149   0.79967   0.00000  Uiso   1.00
C64    C     0.73147   0.68922   0.96903   0.00000  Uiso   1.00
C65    C     0.67872   0.59139   0.95959   0.00000  Uiso   1.00
C66    C     0.62242   0.56064   0.04471   0.00000  Uiso   1.00
C67    C     0.87326   0.72417   0.92530   0.00000  Uiso   1.00
C68    C     0.93972   0.65571   0.87911   0.00000  Uiso   1.00
C69    C     0.00278   0.65436   0.92743   0.00000  Uiso   1.00
H70    H     0.78891   0.90813   0.12460   0.00000  Uiso   1.00
H71    H     0.76618   0.13094   0.04786   0.00000  Uiso   1.00
H72    H     0.66931   0.77359   0.21598   0.00000  Uiso   1.00
H73    H     0.93027   0.83791   0.13550   0.00000  Uiso   1.00
H74    H     0.74243   0.34938   0.92257   0.00000  Uiso   1.00
H75    H     0.53820   0.59587   0.27706   0.00000  Uiso   1.00
H76    H     0.08847   0.73148   0.10737   0.00000  Uiso   1.00
H77    H     0.80031   0.68786   0.81462   0.00000  Uiso   1.00
H78    H     0.77821   0.89859   0.72087   0.00000  Uiso   1.00
H79    H     0.68134   0.54124   0.88899   0.00000  Uiso   1.00
H80    H     0.94229   0.60556   0.80852   0.00000  Uiso   1.00
H81    H     0.75219   0.16080   0.65717   0.00000  Uiso   1.00
H82    H     0.54795   0.40728   0.01167   0.00000  Uiso   1.00
H83    H     0.09823   0.54289   0.84197   0.00000  Uiso   1.00
O84    O     0.73254   0.39769   0.73380   0.00000  Uiso   1.00
O85    O     0.46460   0.40909   0.19888   0.00000  Uiso   1.00
O86    O     0.18655   0.58702   0.97625   0.00000  Uiso   1.00
N87    N     0.74778   0.27608   0.87297   0.00000  Uiso   1.00
N88    N     0.55682   0.57160   0.20439   0.00000  Uiso   1.00
N89    N     0.07127   0.69836   0.04576   0.00000  Uiso   1.00
N90    N     0.75303   0.17461   0.73016   0.00000  Uiso   1.00
N91    N     0.56207   0.47013   0.06158   0.00000  Uiso   1.00
N92    N     0.07653   0.59689   0.90295   0.00000  Uiso   1.00
C93    C     0.79152   0.64233   0.55358   0.00000  Uiso   1.00
C94    C     0.78076   0.55181   0.46890   0.00000  Uiso   1.00
C95    C     0.76878   0.41918   0.47725   0.00000  Uiso   1.00
C96    C     0.76025   0.35358   0.39106   0.00000  Uiso   1.00
C97    C     0.74300   0.20317   0.27346   0.00000  Uiso   1.00
C98    C     0.72812   0.74596   0.56024   0.00000  Uiso   1.00
C99    C     0.67189   0.77658   0.64540   0.00000  Uiso   1.00
C100   C     0.61906   0.87442   0.63609   0.00000  Uiso   1.00
C101   C     0.52011   0.02550   0.66032   0.00000  Uiso   1.00
C102   C     0.86991   0.71101   0.51651   0.00000  Uiso   1.00
C103   C     0.93288   0.71226   0.56492   0.00000  Uiso   1.00
C104   C     0.99942   0.78070   0.51881   0.00000  Uiso   1.00
C105   C     0.12062   0.87751   0.47515   0.00000  Uiso   1.00
C106   C     0.79770   0.76167   0.38564   0.00000  Uiso   1.00
C107   C     0.78411   0.61664   0.37768   0.00000  Uiso   1.00
C108   C     0.77561   0.55122   0.29145   0.00000  Uiso   1.00
C109   C     0.76362   0.41851   0.29967   0.00000  Uiso   1.00
C110   C     0.73147   0.81078   0.46903   0.00000  Uiso   1.00
C111   C     0.67872   0.90861   0.45959   0.00000  Uiso   1.00
C112   C     0.62242   0.93936   0.54471   0.00000  Uiso   1.00
C113   C     0.87326   0.77583   0.42530   0.00000  Uiso   1.00
C114   C     0.93972   0.84429   0.37911   0.00000  Uiso   1.00
C115   C     0.00278   0.84564   0.42743   0.00000  Uiso   1.00
H116   H     0.78891   0.59187   0.62460   0.00000  Uiso   1.00
H117   H     0.76618   0.36906   0.54786   0.00000  Uiso   1.00
H118   H     0.66931   0.72641   0.71598   0.00000  Uiso   1.00
H119   H     0.93027   0.66209   0.63550   0.00000  Uiso   1.00
H120   H     0.74243   0.15062   0.42257   0.00000  Uiso   1.00
H121   H     0.53820   0.90413   0.77706   0.00000  Uiso   1.00
H122   H     0.08847   0.76852   0.60737   0.00000  Uiso   1.00
H123   H     0.80031   0.81214   0.31462   0.00000  Uiso   1.00
H124   H     0.77821   0.60141   0.22087   0.00000  Uiso   1.00
H125   H     0.68134   0.95876   0.38899   0.00000  Uiso   1.00
H126   H     0.94229   0.89444   0.30852   0.00000  Uiso   1.00
H127   H     0.75219   0.33920   0.15717   0.00000  Uiso   1.00
H128   H     0.54795   0.09272   0.51167   0.00000  Uiso   1.00
H129   H     0.09823   0.95711   0.34197   0.00000  Uiso   1.00
O130   O     0.73254   0.10231   0.23380   0.00000  Uiso   1.00
O131   O     0.46460   0.09091   0.69888   0.00000  Uiso   1.00
O132   O     0.18655   0.91298   0.47625   0.00000  Uiso   1.00
N133   N     0.74778   0.22392   0.37297   0.00000  Uiso   1.00
N134   N     0.55682   0.92840   0.70439   0.00000  Uiso   1.00
N135   N     0.07127   0.80164   0.54576   0.00000  Uiso   1.00
N136   N     0.75303   0.32539   0.23016   0.00000  Uiso   1.00
N137   N     0.56207   0.02987   0.56158   0.00000  Uiso   1.00
N138   N     0.07653   0.90311   0.40295   0.00000  Uiso   1.00
C139   C     0.20848   0.14233   0.94642   0.00000  Uiso   1.00
C140   C     0.21924   0.05181   0.03110   0.00000  Uiso   1.00
C141   C     0.23122   0.91918   0.02275   0.00000  Uiso   1.00
C142   C     0.23975   0.85358   0.10894   0.00000  Uiso   1.00
C143   C     0.25700   0.70317   0.22654   0.00000  Uiso   1.00
C144   C     0.27188   0.24596   0.93976   0.00000  Uiso   1.00
C145   C     0.32811   0.27658   0.85460   0.00000  Uiso   1.00
C146   C     0.38094   0.37442   0.86391   0.00000  Uiso   1.00
C147   C     0.47989   0.52550   0.83968   0.00000  Uiso   1.00
C148   C     0.13009   0.21101   0.98349   0.00000  Uiso   1.00
C149   C     0.06712   0.21226   0.93508   0.00000  Uiso   1.00
C150   C     0.00058   0.28070   0.98119   0.00000  Uiso   1.00
C151   C     0.87938   0.37751   0.02485   0.00000  Uiso   1.00
C152   C     0.20230   0.26167   0.11436   0.00000  Uiso   1.00
C153   C     0.21589   0.11664   0.12232   0.00000  Uiso   1.00
C154   C     0.22439   0.05122   0.20855   0.00000  Uiso   1.00
C155   C     0.23638   0.91851   0.20033   0.00000  Uiso   1.00
C156   C     0.26853   0.31078   0.03097   0.00000  Uiso   1.00
C157   C     0.32128   0.40861   0.04041   0.00000  Uiso   1.00
C158   C     0.37758   0.43936   0.95529   0.00000  Uiso   1.00
C159   C     0.12674   0.27583   0.07470   0.00000  Uiso   1.00
C160   C     0.06028   0.34429   0.12089   0.00000  Uiso   1.00
C161   C     0.99722   0.34564   0.07257   0.00000  Uiso   1.00
H162   H     0.21109   0.09187   0.87540   0.00000  Uiso   1.00
H163   H     0.23382   0.86906   0.95214   0.00000  Uiso   1.00
H164   H     0.33069   0.22641   0.78402   0.00000  Uiso   1.00
H165   H     0.06973   0.16209   0.86450   0.00000  Uiso   1.00
H166   H     0.25757   0.65062   0.07743   0.00000  Uiso   1.00
H167   H     0.46180   0.40413   0.72294   0.00000  Uiso   1.00
H168   H     0.91153   0.26852   0.89263   0.00000  Uiso   1.00
H169   H     0.19969   0.31214   0.18538   0.00000  Uiso   1.00
H170   H     0.22179   0.10141   0.27913   0.00000  Uiso   1.00
H171   H     0.31866   0.45876   0.11101   0.00000  Uiso   1.00
H172   H     0.05771   0.39444   0.19148   0.00000  Uiso   1.00
H173   H     0.24781   0.83920   0.34283   0.00000  Uiso   1.00
H174   H     0.45205   0.59272   0.98833   0.00000  Uiso   1.00
H175   H     0.90177   0.45711   0.15803   0.00000  Uiso   1.00
O176   O     0.26746   0.60231   0.26620   0.00000  Uiso   1.00
O177   O     0.53540   0.59091   0.80112   0.00000  Uiso   1.00
O178   O     0.81345   0.41298   0.02375   0.00000  Uiso   1.00
N179   N     0.25222   0.72392   0.12703   0.00000  Uiso   1.00
N180   N     0.44318   0.42840   0.79561   0.00000  Uiso   1.00
N181   N     0.92873   0.30164   0.95424   0.00000  Uiso   1.00
N182   N     0.24697   0.82539   0.26984   0.00000  Uiso   1.00
N183   N     0.43793   0.52987   0.93842   0.00000  Uiso   1.00
N184   N     0.92347   0.40311   0.09705   0.00000  Uiso   1.00
