data_job_03413
_audit_creation_date              2018-12-19
_audit_creation_method            'Materials Studio'
_symmetry_space_group_name_H-M    'P1'
_symmetry_Int_Tables_number       1
_symmetry_cell_setting            triclinic
loop_
_symmetry_equiv_pos_as_xyz
  x,y,z
_cell_length_a                    24.3956
_cell_length_b                    24.3956
_cell_length_c                    8.0244
_cell_angle_alpha                 90.0000
_cell_angle_beta                  90.0000
_cell_angle_gamma                 120.0000
loop_
_atom_site_label
_atom_site_type_symbol
_atom_site_fract_x
_atom_site_fract_y
_atom_site_fract_z
_atom_site_U_iso_or_equiv
_atom_site_adp_type
_atom_site_occupancy
C1     C     0.22063   0.42754   0.22672   0.00000  Uiso   1.00
C2     C     0.16184   0.43384   0.20735   0.00000  Uiso   1.00
C3     C     0.13631   0.45488   0.32915   0.00000  Uiso   1.00
C4     C     0.08232   0.45722   0.28696   0.00000  Uiso   1.00
C5     C     0.99519   0.46972   0.28098   0.00000  Uiso   1.00
C6     C     0.19986   0.35885   0.18555   0.00000  Uiso   1.00
C7     C     0.20631   0.31683   0.28901   0.00000  Uiso   1.00
C8     C     0.18433   0.25604   0.22845   0.00000  Uiso   1.00
C9     C     0.15627   0.15211   0.18859   0.00000  Uiso   1.00
C10    C     0.26560   0.46716   0.08751   0.00000  Uiso   1.00
C11    C     0.32733   0.51620   0.10853   0.00000  Uiso   1.00
C12    C     0.36072   0.54659   0.96543   0.00000  Uiso   1.00
C13    C     0.43473   0.61083   0.77334   0.00000  Uiso   1.00
C14    C     0.17015   0.39430   0.93520   0.00000  Uiso   1.00
C15    C     0.13442   0.41579   0.04900   0.00000  Uiso   1.00
C16    C     0.08046   0.41810   0.00661   0.00000  Uiso   1.00
C17    C     0.05486   0.43913   0.12833   0.00000  Uiso   1.00
C18    C     0.17244   0.34079   0.02721   0.00000  Uiso   1.00
C19    C     0.15046   0.28005   0.96648   0.00000  Uiso   1.00
C20    C     0.15687   0.23795   0.06983   0.00000  Uiso   1.00
C21    C     0.23818   0.44910   0.92916   0.00000  Uiso   1.00
C22    C     0.27148   0.47942   0.78600   0.00000  Uiso   1.00
C23    C     0.33325   0.52850   0.80680   0.00000  Uiso   1.00
H24    H     0.24198   0.44160   0.35000   0.00000  Uiso   1.00
H25    H     0.15754   0.46884   0.45168   0.00000  Uiso   1.00
H26    H     0.22753   0.33081   0.41153   0.00000  Uiso   1.00
H27    H     0.34853   0.53015   0.23108   0.00000  Uiso   1.00
H28    H     0.05182   0.49106   0.49459   0.00000  Uiso   1.00
H29    H     0.19942   0.20003   0.40993   0.00000  Uiso   1.00
H30    H     0.45459   0.62038   0.02942   0.00000  Uiso   1.00
H31    H     0.14881   0.38025   0.81192   0.00000  Uiso   1.00
H32    H     0.05925   0.40413   0.88407   0.00000  Uiso   1.00
H33    H     0.12925   0.26610   0.84394   0.00000  Uiso   1.00
H34    H     0.25025   0.46544   0.66349   0.00000  Uiso   1.00
H35    H     0.97205   0.43853   0.03391   0.00000  Uiso   1.00
H36    H     0.11965   0.14750   0.94925   0.00000  Uiso   1.00
H37    H     0.37481   0.56785   0.56873   0.00000  Uiso   1.00
O38    O     0.95469   0.48159   0.32144   0.00000  Uiso   1.00
O39    O     0.14835   0.09978   0.21036   0.00000  Uiso   1.00
O40    O     0.48312   0.65126   0.71113   0.00000  Uiso   1.00
N41    N     0.04534   0.47543   0.37626   0.00000  Uiso   1.00
N42    N     0.18333   0.20333   0.29712   0.00000  Uiso   1.00
N43    N     0.42189   0.59631   0.94136   0.00000  Uiso   1.00
N44    N     0.00242   0.44717   0.12837   0.00000  Uiso   1.00
N45    N     0.14041   0.17507   0.04922   0.00000  Uiso   1.00
N46    N     0.37897   0.56805   0.69347   0.00000  Uiso   1.00
C47    C     0.57246   0.79309   0.22672   0.00000  Uiso   1.00
C48    C     0.56616   0.72799   0.20735   0.00000  Uiso   1.00
C49    C     0.54512   0.68143   0.32915   0.00000  Uiso   1.00
C50    C     0.54278   0.62511   0.28696   0.00000  Uiso   1.00
C51    C     0.53028   0.52547   0.28098   0.00000  Uiso   1.00
C52    C     0.64115   0.84101   0.18555   0.00000  Uiso   1.00
C53    C     0.68317   0.88948   0.28901   0.00000  Uiso   1.00
C54    C     0.74396   0.92830   0.22845   0.00000  Uiso   1.00
C55    C     0.84789   0.00415   0.18859   0.00000  Uiso   1.00
C56    C     0.53284   0.79844   0.08751   0.00000  Uiso   1.00
C57    C     0.48380   0.81114   0.10853   0.00000  Uiso   1.00
C58    C     0.45341   0.81413   0.96543   0.00000  Uiso   1.00
C59    C     0.38917   0.82389   0.77334   0.00000  Uiso   1.00
C60    C     0.60570   0.77585   0.93520   0.00000  Uiso   1.00
C61    C     0.58421   0.71863   0.04900   0.00000  Uiso   1.00
C62    C     0.58190   0.66236   0.00661   0.00000  Uiso   1.00
C63    C     0.56087   0.61572   0.12833   0.00000  Uiso   1.00
C64    C     0.65921   0.83165   0.02721   0.00000  Uiso   1.00
C65    C     0.71995   0.87041   0.96648   0.00000  Uiso   1.00
C66    C     0.76205   0.91892   0.06983   0.00000  Uiso   1.00
C67    C     0.55090   0.78908   0.92916   0.00000  Uiso   1.00
C68    C     0.52058   0.79206   0.78600   0.00000  Uiso   1.00
C69    C     0.47150   0.80475   0.80680   0.00000  Uiso   1.00
H70    H     0.55840   0.80038   0.35000   0.00000  Uiso   1.00
H71    H     0.53116   0.68870   0.45168   0.00000  Uiso   1.00
H72    H     0.66919   0.89672   0.41153   0.00000  Uiso   1.00
H73    H     0.46985   0.81838   0.23108   0.00000  Uiso   1.00
H74    H     0.50894   0.56076   0.49459   0.00000  Uiso   1.00
H75    H     0.79997   0.99939   0.40993   0.00000  Uiso   1.00
H76    H     0.37962   0.83421   0.02942   0.00000  Uiso   1.00
H77    H     0.61975   0.76856   0.81192   0.00000  Uiso   1.00
H78    H     0.59587   0.65513   0.88407   0.00000  Uiso   1.00
H79    H     0.73390   0.86315   0.84394   0.00000  Uiso   1.00
H80    H     0.53456   0.78481   0.66349   0.00000  Uiso   1.00
H81    H     0.56147   0.53351   0.03391   0.00000  Uiso   1.00
H82    H     0.85250   0.97215   0.94925   0.00000  Uiso   1.00
H83    H     0.43215   0.80696   0.56873   0.00000  Uiso   1.00
O84    O     0.51841   0.47310   0.32144   0.00000  Uiso   1.00
O85    O     0.90022   0.04858   0.21036   0.00000  Uiso   1.00
O86    O     0.34874   0.83185   0.71113   0.00000  Uiso   1.00
N87    N     0.52457   0.56991   0.37626   0.00000  Uiso   1.00
N88    N     0.79667   0.98000   0.29712   0.00000  Uiso   1.00
N89    N     0.40369   0.82558   0.94136   0.00000  Uiso   1.00
N90    N     0.55283   0.55525   0.12837   0.00000  Uiso   1.00
N91    N     0.82493   0.96534   0.04922   0.00000  Uiso   1.00
N92    N     0.43195   0.81092   0.69347   0.00000  Uiso   1.00
C93    C     0.20691   0.77937   0.22672   0.00000  Uiso   1.00
C94    C     0.27201   0.83816   0.20735   0.00000  Uiso   1.00
C95    C     0.31857   0.86369   0.32915   0.00000  Uiso   1.00
C96    C     0.37489   0.91768   0.28696   0.00000  Uiso   1.00
C97    C     0.47453   0.00481   0.28098   0.00000  Uiso   1.00
C98    C     0.15899   0.80014   0.18555   0.00000  Uiso   1.00
C99    C     0.11052   0.79369   0.28901   0.00000  Uiso   1.00
C100   C     0.07170   0.81567   0.22845   0.00000  Uiso   1.00
C101   C     0.99585   0.84373   0.18859   0.00000  Uiso   1.00
C102   C     0.20156   0.73440   0.08751   0.00000  Uiso   1.00
C103   C     0.18886   0.67267   0.10853   0.00000  Uiso   1.00
C104   C     0.18587   0.63928   0.96543   0.00000  Uiso   1.00
C105   C     0.17611   0.56527   0.77334   0.00000  Uiso   1.00
C106   C     0.22415   0.82985   0.93520   0.00000  Uiso   1.00
C107   C     0.28137   0.86558   0.04900   0.00000  Uiso   1.00
C108   C     0.33764   0.91954   0.00661   0.00000  Uiso   1.00
C109   C     0.38428   0.94514   0.12833   0.00000  Uiso   1.00
C110   C     0.16835   0.82756   0.02721   0.00000  Uiso   1.00
C111   C     0.12959   0.84954   0.96648   0.00000  Uiso   1.00
C112   C     0.08108   0.84313   0.06983   0.00000  Uiso   1.00
C113   C     0.21092   0.76182   0.92916   0.00000  Uiso   1.00
C114   C     0.20794   0.72852   0.78600   0.00000  Uiso   1.00
C115   C     0.19525   0.66675   0.80680   0.00000  Uiso   1.00
H116   H     0.19962   0.75802   0.35000   0.00000  Uiso   1.00
H117   H     0.31130   0.84246   0.45168   0.00000  Uiso   1.00
H118   H     0.10328   0.77247   0.41153   0.00000  Uiso   1.00
H119   H     0.18162   0.65147   0.23108   0.00000  Uiso   1.00
H120   H     0.43924   0.94818   0.49459   0.00000  Uiso   1.00
H121   H     0.00061   0.80058   0.40993   0.00000  Uiso   1.00
H122   H     0.16579   0.54541   0.02942   0.00000  Uiso   1.00
H123   H     0.23144   0.85119   0.81192   0.00000  Uiso   1.00
H124   H     0.34487   0.94075   0.88407   0.00000  Uiso   1.00
H125   H     0.13685   0.87075   0.84394   0.00000  Uiso   1.00
H126   H     0.21519   0.74975   0.66349   0.00000  Uiso   1.00
H127   H     0.46649   0.02795   0.03391   0.00000  Uiso   1.00
H128   H     0.02785   0.88035   0.94925   0.00000  Uiso   1.00
H129   H     0.19304   0.62519   0.56873   0.00000  Uiso   1.00
O130   O     0.52690   0.04531   0.32144   0.00000  Uiso   1.00
O131   O     0.95142   0.85165   0.21036   0.00000  Uiso   1.00
O132   O     0.16815   0.51688   0.71113   0.00000  Uiso   1.00
N133   N     0.43009   0.95466   0.37626   0.00000  Uiso   1.00
N134   N     0.02000   0.81667   0.29712   0.00000  Uiso   1.00
N135   N     0.17442   0.57811   0.94136   0.00000  Uiso   1.00
N136   N     0.44475   0.99758   0.12837   0.00000  Uiso   1.00
N137   N     0.03466   0.85959   0.04922   0.00000  Uiso   1.00
N138   N     0.18908   0.62103   0.69347   0.00000  Uiso   1.00
C139   C     0.77937   0.57246   0.77328   0.00000  Uiso   1.00
C140   C     0.83816   0.56616   0.79265   0.00000  Uiso   1.00
C141   C     0.86369   0.54512   0.67085   0.00000  Uiso   1.00
C142   C     0.91768   0.54278   0.71304   0.00000  Uiso   1.00
C143   C     0.00481   0.53028   0.71902   0.00000  Uiso   1.00
C144   C     0.80014   0.64115   0.81445   0.00000  Uiso   1.00
C145   C     0.79369   0.68317   0.71099   0.00000  Uiso   1.00
C146   C     0.81567   0.74396   0.77155   0.00000  Uiso   1.00
C147   C     0.84373   0.84789   0.81141   0.00000  Uiso   1.00
C148   C     0.73440   0.53284   0.91249   0.00000  Uiso   1.00
C149   C     0.67267   0.48380   0.89147   0.00000  Uiso   1.00
C150   C     0.63928   0.45341   0.03457   0.00000  Uiso   1.00
C151   C     0.56527   0.38917   0.22666   0.00000  Uiso   1.00
C152   C     0.82985   0.60570   0.06480   0.00000  Uiso   1.00
C153   C     0.86558   0.58421   0.95100   0.00000  Uiso   1.00
C154   C     0.91954   0.58190   0.99339   0.00000  Uiso   1.00
C155   C     0.94514   0.56087   0.87167   0.00000  Uiso   1.00
C156   C     0.82756   0.65921   0.97279   0.00000  Uiso   1.00
C157   C     0.84954   0.71995   0.03352   0.00000  Uiso   1.00
C158   C     0.84313   0.76205   0.93017   0.00000  Uiso   1.00
C159   C     0.76182   0.55090   0.07084   0.00000  Uiso   1.00
C160   C     0.72852   0.52058   0.21400   0.00000  Uiso   1.00
C161   C     0.66675   0.47150   0.19320   0.00000  Uiso   1.00
H162   H     0.75802   0.55840   0.65000   0.00000  Uiso   1.00
H163   H     0.84246   0.53116   0.54832   0.00000  Uiso   1.00
H164   H     0.77247   0.66919   0.58847   0.00000  Uiso   1.00
H165   H     0.65147   0.46985   0.76892   0.00000  Uiso   1.00
H166   H     0.94818   0.50894   0.50541   0.00000  Uiso   1.00
H167   H     0.80058   0.79997   0.59007   0.00000  Uiso   1.00
H168   H     0.54541   0.37962   0.97058   0.00000  Uiso   1.00
H169   H     0.85119   0.61975   0.18808   0.00000  Uiso   1.00
H170   H     0.94075   0.59587   0.11593   0.00000  Uiso   1.00
H171   H     0.87075   0.73390   0.15606   0.00000  Uiso   1.00
H172   H     0.74975   0.53456   0.33651   0.00000  Uiso   1.00
H173   H     0.02795   0.56147   0.96609   0.00000  Uiso   1.00
H174   H     0.88035   0.85250   0.05075   0.00000  Uiso   1.00
H175   H     0.62519   0.43215   0.43127   0.00000  Uiso   1.00
O176   O     0.04531   0.51841   0.67856   0.00000  Uiso   1.00
O177   O     0.85165   0.90022   0.78964   0.00000  Uiso   1.00
O178   O     0.51688   0.34874   0.28887   0.00000  Uiso   1.00
N179   N     0.95466   0.52457   0.62374   0.00000  Uiso   1.00
N180   N     0.81667   0.79667   0.70288   0.00000  Uiso   1.00
N181   N     0.57811   0.40369   0.05864   0.00000  Uiso   1.00
N182   N     0.99758   0.55283   0.87163   0.00000  Uiso   1.00
N183   N     0.85959   0.82493   0.95078   0.00000  Uiso   1.00
N184   N     0.62103   0.43195   0.30653   0.00000  Uiso   1.00
C185   C     0.42754   0.20691   0.77328   0.00000  Uiso   1.00
C186   C     0.43384   0.27201   0.79265   0.00000  Uiso   1.00
C187   C     0.45488   0.31857   0.67085   0.00000  Uiso   1.00
C188   C     0.45722   0.37489   0.71304   0.00000  Uiso   1.00
C189   C     0.46972   0.47453   0.71902   0.00000  Uiso   1.00
C190   C     0.35885   0.15899   0.81445   0.00000  Uiso   1.00
C191   C     0.31683   0.11052   0.71099   0.00000  Uiso   1.00
C192   C     0.25604   0.07170   0.77155   0.00000  Uiso   1.00
C193   C     0.15211   0.99585   0.81141   0.00000  Uiso   1.00
C194   C     0.46716   0.20156   0.91249   0.00000  Uiso   1.00
C195   C     0.51620   0.18886   0.89147   0.00000  Uiso   1.00
C196   C     0.54659   0.18587   0.03457   0.00000  Uiso   1.00
C197   C     0.61083   0.17611   0.22666   0.00000  Uiso   1.00
C198   C     0.39430   0.22415   0.06480   0.00000  Uiso   1.00
C199   C     0.41579   0.28137   0.95100   0.00000  Uiso   1.00
C200   C     0.41810   0.33764   0.99339   0.00000  Uiso   1.00
C201   C     0.43913   0.38428   0.87167   0.00000  Uiso   1.00
C202   C     0.34079   0.16835   0.97279   0.00000  Uiso   1.00
C203   C     0.28005   0.12959   0.03352   0.00000  Uiso   1.00
C204   C     0.23795   0.08108   0.93017   0.00000  Uiso   1.00
C205   C     0.44910   0.21092   0.07084   0.00000  Uiso   1.00
C206   C     0.47942   0.20794   0.21400   0.00000  Uiso   1.00
C207   C     0.52850   0.19525   0.19320   0.00000  Uiso   1.00
H208   H     0.44160   0.19962   0.65000   0.00000  Uiso   1.00
H209   H     0.46884   0.31130   0.54832   0.00000  Uiso   1.00
H210   H     0.33081   0.10328   0.58847   0.00000  Uiso   1.00
H211   H     0.53015   0.18162   0.76892   0.00000  Uiso   1.00
H212   H     0.49106   0.43924   0.50541   0.00000  Uiso   1.00
H213   H     0.20003   0.00061   0.59007   0.00000  Uiso   1.00
H214   H     0.62038   0.16579   0.97058   0.00000  Uiso   1.00
H215   H     0.38025   0.23144   0.18808   0.00000  Uiso   1.00
H216   H     0.40413   0.34487   0.11593   0.00000  Uiso   1.00
H217   H     0.26610   0.13685   0.15606   0.00000  Uiso   1.00
H218   H     0.46544   0.21519   0.33651   0.00000  Uiso   1.00
H219   H     0.43853   0.46649   0.96609   0.00000  Uiso   1.00
H220   H     0.14750   0.02785   0.05075   0.00000  Uiso   1.00
H221   H     0.56785   0.19304   0.43127   0.00000  Uiso   1.00
O222   O     0.48159   0.52690   0.67856   0.00000  Uiso   1.00
O223   O     0.09978   0.95142   0.78964   0.00000  Uiso   1.00
O224   O     0.65126   0.16815   0.28887   0.00000  Uiso   1.00
N225   N     0.47543   0.43009   0.62374   0.00000  Uiso   1.00
N226   N     0.20333   0.02000   0.70288   0.00000  Uiso   1.00
N227   N     0.59631   0.17442   0.05864   0.00000  Uiso   1.00
N228   N     0.44717   0.44475   0.87163   0.00000  Uiso   1.00
N229   N     0.17507   0.03466   0.95078   0.00000  Uiso   1.00
N230   N     0.56805   0.18908   0.30653   0.00000  Uiso   1.00
C231   C     0.79309   0.22063   0.77328   0.00000  Uiso   1.00
C232   C     0.72799   0.16184   0.79265   0.00000  Uiso   1.00
C233   C     0.68143   0.13631   0.67085   0.00000  Uiso   1.00
C234   C     0.62511   0.08232   0.71304   0.00000  Uiso   1.00
C235   C     0.52547   0.99519   0.71902   0.00000  Uiso   1.00
C236   C     0.84101   0.19986   0.81445   0.00000  Uiso   1.00
C237   C     0.88948   0.20631   0.71099   0.00000  Uiso   1.00
C238   C     0.92830   0.18433   0.77155   0.00000  Uiso   1.00
C239   C     0.00415   0.15627   0.81141   0.00000  Uiso   1.00
C240   C     0.79844   0.26560   0.91249   0.00000  Uiso   1.00
C241   C     0.81114   0.32733   0.89147   0.00000  Uiso   1.00
C242   C     0.81413   0.36072   0.03457   0.00000  Uiso   1.00
C243   C     0.82389   0.43473   0.22666   0.00000  Uiso   1.00
C244   C     0.77585   0.17015   0.06480   0.00000  Uiso   1.00
C245   C     0.71863   0.13442   0.95100   0.00000  Uiso   1.00
C246   C     0.66236   0.08046   0.99339   0.00000  Uiso   1.00
C247   C     0.61572   0.05486   0.87167   0.00000  Uiso   1.00
C248   C     0.83165   0.17244   0.97279   0.00000  Uiso   1.00
C249   C     0.87041   0.15046   0.03352   0.00000  Uiso   1.00
C250   C     0.91892   0.15687   0.93017   0.00000  Uiso   1.00
C251   C     0.78908   0.23818   0.07084   0.00000  Uiso   1.00
C252   C     0.79206   0.27148   0.21400   0.00000  Uiso   1.00
C253   C     0.80475   0.33325   0.19320   0.00000  Uiso   1.00
H254   H     0.80038   0.24198   0.65000   0.00000  Uiso   1.00
H255   H     0.68870   0.15754   0.54832   0.00000  Uiso   1.00
H256   H     0.89672   0.22753   0.58847   0.00000  Uiso   1.00
H257   H     0.81838   0.34853   0.76892   0.00000  Uiso   1.00
H258   H     0.56076   0.05182   0.50541   0.00000  Uiso   1.00
H259   H     0.99939   0.19942   0.59007   0.00000  Uiso   1.00
H260   H     0.83421   0.45459   0.97058   0.00000  Uiso   1.00
H261   H     0.76856   0.14881   0.18808   0.00000  Uiso   1.00
H262   H     0.65513   0.05925   0.11593   0.00000  Uiso   1.00
H263   H     0.86315   0.12925   0.15606   0.00000  Uiso   1.00
H264   H     0.78481   0.25025   0.33651   0.00000  Uiso   1.00
H265   H     0.53351   0.97205   0.96609   0.00000  Uiso   1.00
H266   H     0.97215   0.11965   0.05075   0.00000  Uiso   1.00
H267   H     0.80696   0.37481   0.43127   0.00000  Uiso   1.00
O268   O     0.47310   0.95469   0.67856   0.00000  Uiso   1.00
O269   O     0.04858   0.14835   0.78964   0.00000  Uiso   1.00
O270   O     0.83185   0.48312   0.28887   0.00000  Uiso   1.00
N271   N     0.56991   0.04534   0.62374   0.00000  Uiso   1.00
N272   N     0.98000   0.18333   0.70288   0.00000  Uiso   1.00
N273   N     0.82558   0.42189   0.05864   0.00000  Uiso   1.00
N274   N     0.55525   0.00242   0.87163   0.00000  Uiso   1.00
N275   N     0.96534   0.14041   0.95078   0.00000  Uiso   1.00
N276   N     0.81092   0.37897   0.30653   0.00000  Uiso   1.00
