data_job_03916
_audit_creation_date              2018-12-19
_audit_creation_method            'Materials Studio'
_symmetry_space_group_name_H-M    'P1'
_symmetry_Int_Tables_number       1
_symmetry_cell_setting            triclinic
loop_
_symmetry_equiv_pos_as_xyz
  x,y,z
_cell_length_a                    15.4796
_cell_length_b                    20.1432
_cell_length_c                    18.4333
_cell_angle_alpha                 90.0000
_cell_angle_beta                  90.0000
_cell_angle_gamma                 90.0000
loop_
_atom_site_label
_atom_site_type_symbol
_atom_site_fract_x
_atom_site_fract_y
_atom_site_fract_z
_atom_site_U_iso_or_equiv
_atom_site_adp_type
_atom_site_occupancy
C1     C     0.66545   0.25434   0.02381   0.00000  Uiso   1.00
C2     C     0.73601   0.20198   0.01610   0.00000  Uiso   1.00
C3     C     0.77965   0.18636   0.95259   0.00000  Uiso   1.00
C4     C     0.84198   0.13695   0.95679   0.00000  Uiso   1.00
C5     C     0.94877   0.06059   0.93486   0.00000  Uiso   1.00
C6     C     0.58700   0.21833   0.05472   0.00000  Uiso   1.00
C7     C     0.50536   0.21646   0.02367   0.00000  Uiso   1.00
C8     C     0.44225   0.18082   0.06038   0.00000  Uiso   1.00
C9     C     0.31769   0.12987   0.09844   0.00000  Uiso   1.00
C10    C     0.69602   0.30160   0.08312   0.00000  Uiso   1.00
C11    C     0.70601   0.36975   0.07597   0.00000  Uiso   1.00
C12    C     0.73466   0.40422   0.13660   0.00000  Uiso   1.00
C13    C     0.77936   0.48256   0.21875   0.00000  Uiso   1.00
C14    C     0.69855   0.19436   0.14421   0.00000  Uiso   1.00
C15    C     0.75398   0.16940   0.08150   0.00000  Uiso   1.00
C16    C     0.81627   0.12000   0.08579   0.00000  Uiso   1.00
C17    C     0.85999   0.10431   0.02230   0.00000  Uiso   1.00
C18    C     0.60498   0.18575   0.12011   0.00000  Uiso   1.00
C19    C     0.54198   0.15010   0.15688   0.00000  Uiso   1.00
C20    C     0.46026   0.14818   0.12590   0.00000  Uiso   1.00
C21    C     0.71399   0.26902   0.14851   0.00000  Uiso   1.00
C22    C     0.74263   0.30338   0.20917   0.00000  Uiso   1.00
C23    C     0.75267   0.37158   0.20211   0.00000  Uiso   1.00
H24    H     0.65145   0.27970   0.97290   0.00000  Uiso   1.00
H25    H     0.76571   0.21158   0.90199   0.00000  Uiso   1.00
H26    H     0.49146   0.24168   0.97307   0.00000  Uiso   1.00
H27    H     0.69209   0.39495   0.02535   0.00000  Uiso   1.00
H28    H     0.90030   0.12168   0.85221   0.00000  Uiso   1.00
H29    H     0.32202   0.18517   0.00210   0.00000  Uiso   1.00
H30    H     0.74508   0.50835   0.11235   0.00000  Uiso   1.00
H31    H     0.71254   0.16899   0.19512   0.00000  Uiso   1.00
H32    H     0.83016   0.09480   0.13641   0.00000  Uiso   1.00
H33    H     0.55591   0.12490   0.20748   0.00000  Uiso   1.00
H34    H     0.75653   0.27816   0.25977   0.00000  Uiso   1.00
H35    H     0.95261   0.02689   0.04247   0.00000  Uiso   1.00
H36    H     0.37432   0.09038   0.19236   0.00000  Uiso   1.00
H37    H     0.79738   0.41356   0.30261   0.00000  Uiso   1.00
O38    O     0.00271   0.02746   0.90470   0.00000  Uiso   1.00
O39    O     0.24402   0.11076   0.10135   0.00000  Uiso   1.00
O40    O     0.79906   0.53477   0.24600   0.00000  Uiso   1.00
N41    N     0.89648   0.10956   0.90505   0.00000  Uiso   1.00
N42    N     0.35583   0.16891   0.04518   0.00000  Uiso   1.00
N43    N     0.75133   0.47106   0.14826   0.00000  Uiso   1.00
N44    N     0.92463   0.05855   0.00743   0.00000  Uiso   1.00
N45    N     0.38398   0.11790   0.14755   0.00000  Uiso   1.00
N46    N     0.77947   0.42005   0.25063   0.00000  Uiso   1.00
C47    C     0.83455   0.24566   0.52381   0.00000  Uiso   1.00
C48    C     0.76399   0.29802   0.51610   0.00000  Uiso   1.00
C49    C     0.72035   0.31364   0.45259   0.00000  Uiso   1.00
C50    C     0.65802   0.36305   0.45679   0.00000  Uiso   1.00
C51    C     0.55123   0.43941   0.43486   0.00000  Uiso   1.00
C52    C     0.91300   0.28167   0.55472   0.00000  Uiso   1.00
C53    C     0.99464   0.28354   0.52367   0.00000  Uiso   1.00
C54    C     0.05775   0.31918   0.56038   0.00000  Uiso   1.00
C55    C     0.18231   0.37013   0.59844   0.00000  Uiso   1.00
C56    C     0.80398   0.19840   0.58312   0.00000  Uiso   1.00
C57    C     0.79399   0.13025   0.57597   0.00000  Uiso   1.00
C58    C     0.76534   0.09578   0.63660   0.00000  Uiso   1.00
C59    C     0.72064   0.01744   0.71875   0.00000  Uiso   1.00
C60    C     0.80145   0.30564   0.64421   0.00000  Uiso   1.00
C61    C     0.74602   0.33060   0.58150   0.00000  Uiso   1.00
C62    C     0.68373   0.38000   0.58579   0.00000  Uiso   1.00
C63    C     0.64001   0.39569   0.52230   0.00000  Uiso   1.00
C64    C     0.89502   0.31425   0.62011   0.00000  Uiso   1.00
C65    C     0.95802   0.34990   0.65688   0.00000  Uiso   1.00
C66    C     0.03974   0.35182   0.62590   0.00000  Uiso   1.00
C67    C     0.78601   0.23098   0.64851   0.00000  Uiso   1.00
C68    C     0.75737   0.19662   0.70917   0.00000  Uiso   1.00
C69    C     0.74733   0.12842   0.70211   0.00000  Uiso   1.00
H70    H     0.84855   0.22030   0.47290   0.00000  Uiso   1.00
H71    H     0.73429   0.28842   0.40199   0.00000  Uiso   1.00
H72    H     0.00854   0.25832   0.47307   0.00000  Uiso   1.00
H73    H     0.80791   0.10505   0.52535   0.00000  Uiso   1.00
H74    H     0.59970   0.37832   0.35221   0.00000  Uiso   1.00
H75    H     0.17798   0.31483   0.50210   0.00000  Uiso   1.00
H76    H     0.75492   0.99165   0.61235   0.00000  Uiso   1.00
H77    H     0.78746   0.33101   0.69512   0.00000  Uiso   1.00
H78    H     0.66984   0.40520   0.63641   0.00000  Uiso   1.00
H79    H     0.94409   0.37510   0.70748   0.00000  Uiso   1.00
H80    H     0.74347   0.22184   0.75977   0.00000  Uiso   1.00
H81    H     0.54739   0.47311   0.54247   0.00000  Uiso   1.00
H82    H     0.12568   0.40962   0.69236   0.00000  Uiso   1.00
H83    H     0.70262   0.08644   0.80261   0.00000  Uiso   1.00
O84    O     0.49729   0.47254   0.40470   0.00000  Uiso   1.00
O85    O     0.25598   0.38924   0.60135   0.00000  Uiso   1.00
O86    O     0.70094   0.96523   0.74600   0.00000  Uiso   1.00
N87    N     0.60352   0.39044   0.40505   0.00000  Uiso   1.00
N88    N     0.14417   0.33109   0.54518   0.00000  Uiso   1.00
N89    N     0.74867   0.02894   0.64826   0.00000  Uiso   1.00
N90    N     0.57537   0.44145   0.50743   0.00000  Uiso   1.00
N91    N     0.11602   0.38210   0.64755   0.00000  Uiso   1.00
N92    N     0.72053   0.07995   0.75063   0.00000  Uiso   1.00
C93    C     0.33455   0.25434   0.47619   0.00000  Uiso   1.00
C94    C     0.26399   0.20198   0.48390   0.00000  Uiso   1.00
C95    C     0.22035   0.18636   0.54741   0.00000  Uiso   1.00
C96    C     0.15802   0.13695   0.54321   0.00000  Uiso   1.00
C97    C     0.05123   0.06059   0.56514   0.00000  Uiso   1.00
C98    C     0.41300   0.21833   0.44528   0.00000  Uiso   1.00
C99    C     0.49464   0.21646   0.47633   0.00000  Uiso   1.00
C100   C     0.55775   0.18082   0.43962   0.00000  Uiso   1.00
C101   C     0.68231   0.12987   0.40156   0.00000  Uiso   1.00
C102   C     0.30398   0.30160   0.41688   0.00000  Uiso   1.00
C103   C     0.29399   0.36975   0.42403   0.00000  Uiso   1.00
C104   C     0.26534   0.40422   0.36340   0.00000  Uiso   1.00
C105   C     0.22064   0.48256   0.28125   0.00000  Uiso   1.00
C106   C     0.30145   0.19436   0.35579   0.00000  Uiso   1.00
C107   C     0.24602   0.16940   0.41850   0.00000  Uiso   1.00
C108   C     0.18373   0.12000   0.41421   0.00000  Uiso   1.00
C109   C     0.14001   0.10431   0.47770   0.00000  Uiso   1.00
C110   C     0.39502   0.18575   0.37989   0.00000  Uiso   1.00
C111   C     0.45802   0.15010   0.34312   0.00000  Uiso   1.00
C112   C     0.53974   0.14818   0.37410   0.00000  Uiso   1.00
C113   C     0.28601   0.26902   0.35149   0.00000  Uiso   1.00
C114   C     0.25737   0.30338   0.29083   0.00000  Uiso   1.00
C115   C     0.24733   0.37158   0.29789   0.00000  Uiso   1.00
H116   H     0.34855   0.27970   0.52710   0.00000  Uiso   1.00
H117   H     0.23429   0.21158   0.59801   0.00000  Uiso   1.00
H118   H     0.50854   0.24168   0.52693   0.00000  Uiso   1.00
H119   H     0.30791   0.39495   0.47465   0.00000  Uiso   1.00
H120   H     0.09970   0.12168   0.64779   0.00000  Uiso   1.00
H121   H     0.67798   0.18517   0.49790   0.00000  Uiso   1.00
H122   H     0.25492   0.50835   0.38765   0.00000  Uiso   1.00
H123   H     0.28746   0.16899   0.30488   0.00000  Uiso   1.00
H124   H     0.16984   0.09480   0.36359   0.00000  Uiso   1.00
H125   H     0.44409   0.12490   0.29252   0.00000  Uiso   1.00
H126   H     0.24347   0.27816   0.24023   0.00000  Uiso   1.00
H127   H     0.04739   0.02689   0.45753   0.00000  Uiso   1.00
H128   H     0.62568   0.09038   0.30764   0.00000  Uiso   1.00
H129   H     0.20262   0.41356   0.19739   0.00000  Uiso   1.00
O130   O     0.99729   0.02746   0.59530   0.00000  Uiso   1.00
O131   O     0.75598   0.11076   0.39865   0.00000  Uiso   1.00
O132   O     0.20094   0.53477   0.25400   0.00000  Uiso   1.00
N133   N     0.10352   0.10956   0.59495   0.00000  Uiso   1.00
N134   N     0.64417   0.16891   0.45482   0.00000  Uiso   1.00
N135   N     0.24867   0.47106   0.35174   0.00000  Uiso   1.00
N136   N     0.07537   0.05855   0.49257   0.00000  Uiso   1.00
N137   N     0.61602   0.11790   0.35245   0.00000  Uiso   1.00
N138   N     0.22053   0.42005   0.24937   0.00000  Uiso   1.00
C139   C     0.16545   0.24566   0.97619   0.00000  Uiso   1.00
C140   C     0.23601   0.29802   0.98390   0.00000  Uiso   1.00
C141   C     0.27965   0.31364   0.04741   0.00000  Uiso   1.00
C142   C     0.34198   0.36305   0.04321   0.00000  Uiso   1.00
C143   C     0.44877   0.43941   0.06514   0.00000  Uiso   1.00
C144   C     0.08700   0.28167   0.94528   0.00000  Uiso   1.00
C145   C     0.00536   0.28354   0.97633   0.00000  Uiso   1.00
C146   C     0.94225   0.31918   0.93962   0.00000  Uiso   1.00
C147   C     0.81769   0.37013   0.90156   0.00000  Uiso   1.00
C148   C     0.19602   0.19840   0.91688   0.00000  Uiso   1.00
C149   C     0.20601   0.13025   0.92403   0.00000  Uiso   1.00
C150   C     0.23466   0.09578   0.86340   0.00000  Uiso   1.00
C151   C     0.27936   0.01744   0.78125   0.00000  Uiso   1.00
C152   C     0.19855   0.30564   0.85579   0.00000  Uiso   1.00
C153   C     0.25398   0.33060   0.91850   0.00000  Uiso   1.00
C154   C     0.31627   0.38000   0.91421   0.00000  Uiso   1.00
C155   C     0.35999   0.39569   0.97770   0.00000  Uiso   1.00
C156   C     0.10498   0.31425   0.87989   0.00000  Uiso   1.00
C157   C     0.04198   0.34990   0.84312   0.00000  Uiso   1.00
C158   C     0.96026   0.35182   0.87410   0.00000  Uiso   1.00
C159   C     0.21399   0.23098   0.85149   0.00000  Uiso   1.00
C160   C     0.24263   0.19662   0.79083   0.00000  Uiso   1.00
C161   C     0.25267   0.12842   0.79789   0.00000  Uiso   1.00
H162   H     0.15145   0.22030   0.02710   0.00000  Uiso   1.00
H163   H     0.26571   0.28842   0.09801   0.00000  Uiso   1.00
H164   H     0.99146   0.25832   0.02693   0.00000  Uiso   1.00
H165   H     0.19209   0.10505   0.97465   0.00000  Uiso   1.00
H166   H     0.40030   0.37832   0.14779   0.00000  Uiso   1.00
H167   H     0.82202   0.31483   0.99790   0.00000  Uiso   1.00
H168   H     0.24508   0.99165   0.88765   0.00000  Uiso   1.00
H169   H     0.21254   0.33101   0.80488   0.00000  Uiso   1.00
H170   H     0.33016   0.40520   0.86359   0.00000  Uiso   1.00
H171   H     0.05591   0.37510   0.79252   0.00000  Uiso   1.00
H172   H     0.25653   0.22184   0.74023   0.00000  Uiso   1.00
H173   H     0.45261   0.47311   0.95753   0.00000  Uiso   1.00
H174   H     0.87432   0.40962   0.80764   0.00000  Uiso   1.00
H175   H     0.29738   0.08644   0.69739   0.00000  Uiso   1.00
O176   O     0.50271   0.47254   0.09530   0.00000  Uiso   1.00
O177   O     0.74402   0.38924   0.89865   0.00000  Uiso   1.00
O178   O     0.29906   0.96523   0.75400   0.00000  Uiso   1.00
N179   N     0.39648   0.39044   0.09495   0.00000  Uiso   1.00
N180   N     0.85583   0.33109   0.95482   0.00000  Uiso   1.00
N181   N     0.25133   0.02894   0.85174   0.00000  Uiso   1.00
N182   N     0.42463   0.44145   0.99257   0.00000  Uiso   1.00
N183   N     0.88398   0.38210   0.85245   0.00000  Uiso   1.00
N184   N     0.27947   0.07995   0.74937   0.00000  Uiso   1.00
C185   C     0.33455   0.74566   0.97619   0.00000  Uiso   1.00
C186   C     0.26399   0.79802   0.98390   0.00000  Uiso   1.00
C187   C     0.22035   0.81364   0.04741   0.00000  Uiso   1.00
C188   C     0.15802   0.86305   0.04321   0.00000  Uiso   1.00
C189   C     0.05123   0.93941   0.06514   0.00000  Uiso   1.00
C190   C     0.41300   0.78167   0.94528   0.00000  Uiso   1.00
C191   C     0.49464   0.78354   0.97633   0.00000  Uiso   1.00
C192   C     0.55775   0.81918   0.93962   0.00000  Uiso   1.00
C193   C     0.68231   0.87013   0.90156   0.00000  Uiso   1.00
C194   C     0.30398   0.69840   0.91688   0.00000  Uiso   1.00
C195   C     0.29399   0.63025   0.92403   0.00000  Uiso   1.00
C196   C     0.26534   0.59578   0.86340   0.00000  Uiso   1.00
C197   C     0.22064   0.51744   0.78125   0.00000  Uiso   1.00
C198   C     0.30145   0.80564   0.85579   0.00000  Uiso   1.00
C199   C     0.24602   0.83060   0.91850   0.00000  Uiso   1.00
C200   C     0.18373   0.88000   0.91421   0.00000  Uiso   1.00
C201   C     0.14001   0.89569   0.97770   0.00000  Uiso   1.00
C202   C     0.39502   0.81425   0.87989   0.00000  Uiso   1.00
C203   C     0.45802   0.84990   0.84312   0.00000  Uiso   1.00
C204   C     0.53974   0.85182   0.87410   0.00000  Uiso   1.00
C205   C     0.28601   0.73098   0.85149   0.00000  Uiso   1.00
C206   C     0.25737   0.69662   0.79083   0.00000  Uiso   1.00
C207   C     0.24733   0.62842   0.79789   0.00000  Uiso   1.00
H208   H     0.34855   0.72030   0.02710   0.00000  Uiso   1.00
H209   H     0.23429   0.78842   0.09801   0.00000  Uiso   1.00
H210   H     0.50854   0.75832   0.02693   0.00000  Uiso   1.00
H211   H     0.30791   0.60505   0.97465   0.00000  Uiso   1.00
H212   H     0.09970   0.87832   0.14779   0.00000  Uiso   1.00
H213   H     0.67798   0.81483   0.99790   0.00000  Uiso   1.00
H214   H     0.25492   0.49165   0.88765   0.00000  Uiso   1.00
H215   H     0.28746   0.83101   0.80488   0.00000  Uiso   1.00
H216   H     0.16984   0.90520   0.86359   0.00000  Uiso   1.00
H217   H     0.44409   0.87510   0.79252   0.00000  Uiso   1.00
H218   H     0.24347   0.72184   0.74023   0.00000  Uiso   1.00
H219   H     0.04739   0.97311   0.95753   0.00000  Uiso   1.00
H220   H     0.62568   0.90962   0.80764   0.00000  Uiso   1.00
H221   H     0.20262   0.58644   0.69739   0.00000  Uiso   1.00
O222   O     0.99729   0.97254   0.09530   0.00000  Uiso   1.00
O223   O     0.75598   0.88924   0.89865   0.00000  Uiso   1.00
O224   O     0.20094   0.46523   0.75400   0.00000  Uiso   1.00
N225   N     0.10352   0.89044   0.09495   0.00000  Uiso   1.00
N226   N     0.64417   0.83109   0.95482   0.00000  Uiso   1.00
N227   N     0.24867   0.52894   0.85174   0.00000  Uiso   1.00
N228   N     0.07537   0.94145   0.99257   0.00000  Uiso   1.00
N229   N     0.61602   0.88210   0.85245   0.00000  Uiso   1.00
N230   N     0.22053   0.57995   0.74937   0.00000  Uiso   1.00
C231   C     0.16545   0.75434   0.47619   0.00000  Uiso   1.00
C232   C     0.23601   0.70198   0.48390   0.00000  Uiso   1.00
C233   C     0.27965   0.68636   0.54741   0.00000  Uiso   1.00
C234   C     0.34198   0.63695   0.54321   0.00000  Uiso   1.00
C235   C     0.44877   0.56059   0.56514   0.00000  Uiso   1.00
C236   C     0.08700   0.71833   0.44528   0.00000  Uiso   1.00
C237   C     0.00536   0.71646   0.47633   0.00000  Uiso   1.00
C238   C     0.94225   0.68082   0.43962   0.00000  Uiso   1.00
C239   C     0.81769   0.62987   0.40156   0.00000  Uiso   1.00
C240   C     0.19602   0.80160   0.41688   0.00000  Uiso   1.00
C241   C     0.20601   0.86975   0.42403   0.00000  Uiso   1.00
C242   C     0.23466   0.90422   0.36340   0.00000  Uiso   1.00
C243   C     0.27936   0.98256   0.28125   0.00000  Uiso   1.00
C244   C     0.19855   0.69436   0.35579   0.00000  Uiso   1.00
C245   C     0.25398   0.66940   0.41850   0.00000  Uiso   1.00
C246   C     0.31627   0.62000   0.41421   0.00000  Uiso   1.00
C247   C     0.35999   0.60431   0.47770   0.00000  Uiso   1.00
C248   C     0.10498   0.68575   0.37989   0.00000  Uiso   1.00
C249   C     0.04198   0.65010   0.34312   0.00000  Uiso   1.00
C250   C     0.96026   0.64818   0.37410   0.00000  Uiso   1.00
C251   C     0.21399   0.76902   0.35149   0.00000  Uiso   1.00
C252   C     0.24263   0.80338   0.29083   0.00000  Uiso   1.00
C253   C     0.25267   0.87158   0.29789   0.00000  Uiso   1.00
H254   H     0.15145   0.77970   0.52710   0.00000  Uiso   1.00
H255   H     0.26571   0.71158   0.59801   0.00000  Uiso   1.00
H256   H     0.99146   0.74168   0.52693   0.00000  Uiso   1.00
H257   H     0.19209   0.89495   0.47465   0.00000  Uiso   1.00
H258   H     0.40030   0.62168   0.64779   0.00000  Uiso   1.00
H259   H     0.82202   0.68517   0.49790   0.00000  Uiso   1.00
H260   H     0.24508   0.00835   0.38765   0.00000  Uiso   1.00
H261   H     0.21254   0.66899   0.30488   0.00000  Uiso   1.00
H262   H     0.33016   0.59480   0.36359   0.00000  Uiso   1.00
H263   H     0.05591   0.62490   0.29252   0.00000  Uiso   1.00
H264   H     0.25653   0.77816   0.24023   0.00000  Uiso   1.00
H265   H     0.45261   0.52689   0.45753   0.00000  Uiso   1.00
H266   H     0.87432   0.59038   0.30764   0.00000  Uiso   1.00
H267   H     0.29738   0.91356   0.19739   0.00000  Uiso   1.00
O268   O     0.50271   0.52746   0.59530   0.00000  Uiso   1.00
O269   O     0.74402   0.61076   0.39865   0.00000  Uiso   1.00
O270   O     0.29906   0.03477   0.25400   0.00000  Uiso   1.00
N271   N     0.39648   0.60956   0.59495   0.00000  Uiso   1.00
N272   N     0.85583   0.66891   0.45482   0.00000  Uiso   1.00
N273   N     0.25133   0.97106   0.35174   0.00000  Uiso   1.00
N274   N     0.42463   0.55855   0.49257   0.00000  Uiso   1.00
N275   N     0.88398   0.61790   0.35245   0.00000  Uiso   1.00
N276   N     0.27947   0.92005   0.24937   0.00000  Uiso   1.00
C277   C     0.66545   0.74566   0.52381   0.00000  Uiso   1.00
C278   C     0.73601   0.79802   0.51610   0.00000  Uiso   1.00
C279   C     0.77965   0.81364   0.45259   0.00000  Uiso   1.00
C280   C     0.84198   0.86305   0.45679   0.00000  Uiso   1.00
C281   C     0.94877   0.93941   0.43486   0.00000  Uiso   1.00
C282   C     0.58700   0.78167   0.55472   0.00000  Uiso   1.00
C283   C     0.50536   0.78354   0.52367   0.00000  Uiso   1.00
C284   C     0.44225   0.81918   0.56038   0.00000  Uiso   1.00
C285   C     0.31769   0.87013   0.59844   0.00000  Uiso   1.00
C286   C     0.69602   0.69840   0.58312   0.00000  Uiso   1.00
C287   C     0.70601   0.63025   0.57597   0.00000  Uiso   1.00
C288   C     0.73466   0.59578   0.63660   0.00000  Uiso   1.00
C289   C     0.77936   0.51744   0.71875   0.00000  Uiso   1.00
C290   C     0.69855   0.80564   0.64421   0.00000  Uiso   1.00
C291   C     0.75398   0.83060   0.58150   0.00000  Uiso   1.00
C292   C     0.81627   0.88000   0.58579   0.00000  Uiso   1.00
C293   C     0.85999   0.89569   0.52230   0.00000  Uiso   1.00
C294   C     0.60498   0.81425   0.62011   0.00000  Uiso   1.00
C295   C     0.54198   0.84990   0.65688   0.00000  Uiso   1.00
C296   C     0.46026   0.85182   0.62590   0.00000  Uiso   1.00
C297   C     0.71399   0.73098   0.64851   0.00000  Uiso   1.00
C298   C     0.74263   0.69662   0.70917   0.00000  Uiso   1.00
C299   C     0.75267   0.62842   0.70211   0.00000  Uiso   1.00
H300   H     0.65145   0.72030   0.47290   0.00000  Uiso   1.00
H301   H     0.76571   0.78842   0.40199   0.00000  Uiso   1.00
H302   H     0.49146   0.75832   0.47307   0.00000  Uiso   1.00
H303   H     0.69209   0.60505   0.52535   0.00000  Uiso   1.00
H304   H     0.90030   0.87832   0.35221   0.00000  Uiso   1.00
H305   H     0.32202   0.81483   0.50210   0.00000  Uiso   1.00
H306   H     0.74508   0.49165   0.61235   0.00000  Uiso   1.00
H307   H     0.71254   0.83101   0.69512   0.00000  Uiso   1.00
H308   H     0.83016   0.90520   0.63641   0.00000  Uiso   1.00
H309   H     0.55591   0.87510   0.70748   0.00000  Uiso   1.00
H310   H     0.75653   0.72184   0.75977   0.00000  Uiso   1.00
H311   H     0.95261   0.97311   0.54247   0.00000  Uiso   1.00
H312   H     0.37432   0.90962   0.69236   0.00000  Uiso   1.00
H313   H     0.79738   0.58644   0.80261   0.00000  Uiso   1.00
O314   O     0.00271   0.97254   0.40470   0.00000  Uiso   1.00
O315   O     0.24402   0.88924   0.60135   0.00000  Uiso   1.00
O316   O     0.79906   0.46523   0.74600   0.00000  Uiso   1.00
N317   N     0.89648   0.89044   0.40505   0.00000  Uiso   1.00
N318   N     0.35583   0.83109   0.54518   0.00000  Uiso   1.00
N319   N     0.75133   0.52894   0.64826   0.00000  Uiso   1.00
N320   N     0.92463   0.94145   0.50743   0.00000  Uiso   1.00
N321   N     0.38398   0.88210   0.64755   0.00000  Uiso   1.00
N322   N     0.77947   0.57995   0.75063   0.00000  Uiso   1.00
C323   C     0.83455   0.75434   0.02381   0.00000  Uiso   1.00
C324   C     0.76399   0.70198   0.01610   0.00000  Uiso   1.00
C325   C     0.72035   0.68636   0.95259   0.00000  Uiso   1.00
C326   C     0.65802   0.63695   0.95679   0.00000  Uiso   1.00
C327   C     0.55123   0.56059   0.93486   0.00000  Uiso   1.00
C328   C     0.91300   0.71833   0.05472   0.00000  Uiso   1.00
C329   C     0.99464   0.71646   0.02367   0.00000  Uiso   1.00
C330   C     0.05775   0.68082   0.06038   0.00000  Uiso   1.00
C331   C     0.18231   0.62987   0.09844   0.00000  Uiso   1.00
C332   C     0.80398   0.80160   0.08312   0.00000  Uiso   1.00
C333   C     0.79399   0.86975   0.07597   0.00000  Uiso   1.00
C334   C     0.76534   0.90422   0.13660   0.00000  Uiso   1.00
C335   C     0.72064   0.98256   0.21875   0.00000  Uiso   1.00
C336   C     0.80145   0.69436   0.14421   0.00000  Uiso   1.00
C337   C     0.74602   0.66940   0.08150   0.00000  Uiso   1.00
C338   C     0.68373   0.62000   0.08579   0.00000  Uiso   1.00
C339   C     0.64001   0.60431   0.02230   0.00000  Uiso   1.00
C340   C     0.89502   0.68575   0.12011   0.00000  Uiso   1.00
C341   C     0.95802   0.65010   0.15688   0.00000  Uiso   1.00
C342   C     0.03974   0.64818   0.12590   0.00000  Uiso   1.00
C343   C     0.78601   0.76902   0.14851   0.00000  Uiso   1.00
C344   C     0.75737   0.80338   0.20917   0.00000  Uiso   1.00
C345   C     0.74733   0.87158   0.20211   0.00000  Uiso   1.00
H346   H     0.84855   0.77970   0.97290   0.00000  Uiso   1.00
H347   H     0.73429   0.71158   0.90199   0.00000  Uiso   1.00
H348   H     0.00854   0.74168   0.97307   0.00000  Uiso   1.00
H349   H     0.80791   0.89495   0.02535   0.00000  Uiso   1.00
H350   H     0.59970   0.62168   0.85221   0.00000  Uiso   1.00
H351   H     0.17798   0.68517   0.00210   0.00000  Uiso   1.00
H352   H     0.75492   0.00835   0.11235   0.00000  Uiso   1.00
H353   H     0.78746   0.66899   0.19512   0.00000  Uiso   1.00
H354   H     0.66984   0.59480   0.13641   0.00000  Uiso   1.00
H355   H     0.94409   0.62490   0.20748   0.00000  Uiso   1.00
H356   H     0.74347   0.77816   0.25977   0.00000  Uiso   1.00
H357   H     0.54739   0.52689   0.04247   0.00000  Uiso   1.00
H358   H     0.12568   0.59038   0.19236   0.00000  Uiso   1.00
H359   H     0.70262   0.91356   0.30261   0.00000  Uiso   1.00
O360   O     0.49729   0.52746   0.90470   0.00000  Uiso   1.00
O361   O     0.25598   0.61076   0.10135   0.00000  Uiso   1.00
O362   O     0.70094   0.03477   0.24600   0.00000  Uiso   1.00
N363   N     0.60352   0.60956   0.90505   0.00000  Uiso   1.00
N364   N     0.14417   0.66891   0.04518   0.00000  Uiso   1.00
N365   N     0.74867   0.97106   0.14826   0.00000  Uiso   1.00
N366   N     0.57537   0.55855   0.00743   0.00000  Uiso   1.00
N367   N     0.11602   0.61790   0.14755   0.00000  Uiso   1.00
N368   N     0.72053   0.92005   0.25063   0.00000  Uiso   1.00
