data_job_07049
_audit_creation_date              2018-12-19
_audit_creation_method            'Materials Studio'
_symmetry_space_group_name_H-M    'P1'
_symmetry_Int_Tables_number       1
_symmetry_cell_setting            triclinic
loop_
_symmetry_equiv_pos_as_xyz
  x,y,z
_cell_length_a                    23.5817
_cell_length_b                    22.4493
_cell_length_c                    23.6165
_cell_angle_alpha                 105.5460
_cell_angle_beta                  104.0060
_cell_angle_gamma                 115.4300
loop_
_atom_site_label
_atom_site_type_symbol
_atom_site_fract_x
_atom_site_fract_y
_atom_site_fract_z
_atom_site_U_iso_or_equiv
_atom_site_adp_type
_atom_site_occupancy
C1     C     0.73603   0.01354   0.27815   0.00000  Uiso   1.00
C2     C     0.77862   0.06294   0.34996   0.00000  Uiso   1.00
C3     C     0.79734   0.13481   0.38015   0.00000  Uiso   1.00
C4     C     0.83642   0.17071   0.44626   0.00000  Uiso   1.00
C5     C     0.89960   0.25272   0.55249   0.00000  Uiso   1.00
C6     C     0.77963   0.98722   0.25501   0.00000  Uiso   1.00
C7     C     0.79918   0.99543   0.20536   0.00000  Uiso   1.00
C8     C     0.83910   0.96759   0.19153   0.00000  Uiso   1.00
C9     C     0.90380   0.93201   0.15031   0.00000  Uiso   1.00
C10    C     0.67458   0.94657   0.27315   0.00000  Uiso   1.00
C11    C     0.60581   0.92057   0.23875   0.00000  Uiso   1.00
C12    C     0.55728   0.85849   0.24019   0.00000  Uiso   1.00
C13    C     0.45888   0.75977   0.22715   0.00000  Uiso   1.00
C14    C     0.77213   0.94949   0.34187   0.00000  Uiso   1.00
C15    C     0.79823   0.02815   0.38457   0.00000  Uiso   1.00
C16    C     0.83729   0.06395   0.45065   0.00000  Uiso   1.00
C17    C     0.85606   0.13586   0.48094   0.00000  Uiso   1.00
C18    C     0.79924   0.95244   0.28962   0.00000  Uiso   1.00
C19    C     0.83913   0.92457   0.27586   0.00000  Uiso   1.00
C20    C     0.85874   0.93274   0.22620   0.00000  Uiso   1.00
C21    C     0.69419   0.91178   0.30777   0.00000  Uiso   1.00
C22    C     0.64576   0.84972   0.30925   0.00000  Uiso   1.00
C23    C     0.57692   0.82364   0.27486   0.00000  Uiso   1.00
H24    H     0.72076   0.04062   0.25120   0.00000  Uiso   1.00
H25    H     0.78216   0.16171   0.35335   0.00000  Uiso   1.00
H26    H     0.78400   0.02235   0.17858   0.00000  Uiso   1.00
H27    H     0.59066   0.94751   0.21197   0.00000  Uiso   1.00
H28    H     0.85891   0.28063   0.48185   0.00000  Uiso   1.00
H29    H     0.86275   0.98676   0.11333   0.00000  Uiso   1.00
H30    H     0.45505   0.82893   0.18374   0.00000  Uiso   1.00
H31    H     0.78740   0.92240   0.36882   0.00000  Uiso   1.00
H32    H     0.85245   0.03701   0.47742   0.00000  Uiso   1.00
H33    H     0.85429   0.89765   0.30265   0.00000  Uiso   1.00
H34    H     0.66095   0.82281   0.33604   0.00000  Uiso   1.00
H35    H     0.91596   0.17943   0.58256   0.00000  Uiso   1.00
H36    H     0.91980   0.88555   0.21403   0.00000  Uiso   1.00
H37    H     0.51210   0.72773   0.28444   0.00000  Uiso   1.00
O38    O     0.92905   0.30756   0.60152   0.00000  Uiso   1.00
O39    O     0.93408   0.92200   0.11802   0.00000  Uiso   1.00
O40    O     0.39919   0.71494   0.21040   0.00000  Uiso   1.00
N41    N     0.86339   0.24108   0.49065   0.00000  Uiso   1.00
N42    N     0.86700   0.96634   0.14611   0.00000  Uiso   1.00
N43    N     0.48583   0.81877   0.21192   0.00000  Uiso   1.00
N44    N     0.89409   0.18662   0.54484   0.00000  Uiso   1.00
N45    N     0.89770   0.91188   0.20029   0.00000  Uiso   1.00
N46    N     0.51653   0.76431   0.26611   0.00000  Uiso   1.00
C47    C     0.35112   0.83309   0.72516   0.00000  Uiso   1.00
C48    C     0.42212   0.89533   0.77647   0.00000  Uiso   1.00
C49    C     0.44110   0.92204   0.84256   0.00000  Uiso   1.00
C50    C     0.50850   0.97926   0.88146   0.00000  Uiso   1.00
C51    C     0.61164   0.07147   0.96513   0.00000  Uiso   1.00
C52    C     0.32757   0.86391   0.68072   0.00000  Uiso   1.00
C53    C     0.26705   0.86418   0.66631   0.00000  Uiso   1.00
C54    C     0.25487   0.89494   0.62459   0.00000  Uiso   1.00
C55    C     0.21120   0.93831   0.55958   0.00000  Uiso   1.00
C56    C     0.36256   0.77711   0.68508   0.00000  Uiso   1.00
C57    C     0.33145   0.70440   0.67431   0.00000  Uiso   1.00
C58    C     0.34871   0.66207   0.63625   0.00000  Uiso   1.00
C59    C     0.35936   0.57068   0.57800   0.00000  Uiso   1.00
C60    C     0.43708   0.88721   0.67670   0.00000  Uiso   1.00
C61    C     0.46881   0.92473   0.75015   0.00000  Uiso   1.00
C62    C     0.53620   0.98192   0.78895   0.00000  Uiso   1.00
C63    C     0.55528   0.00871   0.85509   0.00000  Uiso   1.00
C64    C     0.37426   0.89330   0.65440   0.00000  Uiso   1.00
C65    C     0.36216   0.92406   0.61270   0.00000  Uiso   1.00
C66    C     0.30164   0.92439   0.59822   0.00000  Uiso   1.00
C67    C     0.40925   0.80651   0.65876   0.00000  Uiso   1.00
C68    C     0.42656   0.76428   0.62070   0.00000  Uiso   1.00
C69    C     0.39548   0.69152   0.60988   0.00000  Uiso   1.00
H70    H     0.31476   0.81020   0.74565   0.00000  Uiso   1.00
H71    H     0.40495   0.89928   0.86291   0.00000  Uiso   1.00
H72    H     0.23093   0.84142   0.68668   0.00000  Uiso   1.00
H73    H     0.29532   0.68167   0.69468   0.00000  Uiso   1.00
H74    H     0.52552   0.01102   0.98131   0.00000  Uiso   1.00
H75    H     0.15858   0.88901   0.60969   0.00000  Uiso   1.00
H76    H     0.29436   0.55213   0.62658   0.00000  Uiso   1.00
H77    H     0.47343   0.91009   0.65621   0.00000  Uiso   1.00
H78    H     0.57232   0.00466   0.76857   0.00000  Uiso   1.00
H79    H     0.39830   0.94680   0.59234   0.00000  Uiso   1.00
H80    H     0.46269   0.78705   0.60034   0.00000  Uiso   1.00
H81    H     0.66136   0.09656   0.90475   0.00000  Uiso   1.00
H82    H     0.29442   0.97453   0.53312   0.00000  Uiso   1.00
H83    H     0.43020   0.63766   0.55001   0.00000  Uiso   1.00
O84    O     0.65562   0.11421   0.01856   0.00000  Uiso   1.00
O85    O     0.17421   0.95411   0.53100   0.00000  Uiso   1.00
O86    O     0.35235   0.51215   0.55315   0.00000  Uiso   1.00
N87    N     0.54392   0.01817   0.94787   0.00000  Uiso   1.00
N88    N     0.20086   0.90410   0.60044   0.00000  Uiso   1.00
N89    N     0.32779   0.58915   0.61621   0.00000  Uiso   1.00
N90    N     0.61702   0.06419   0.90667   0.00000  Uiso   1.00
N91    N     0.27396   0.95012   0.55924   0.00000  Uiso   1.00
N92    N     0.40088   0.63517   0.57501   0.00000  Uiso   1.00
C93    C     0.81292   0.45423   0.73704   0.00000  Uiso   1.00
C94    C     0.88721   0.51799   0.77608   0.00000  Uiso   1.00
C95    C     0.94515   0.51733   0.77360   0.00000  Uiso   1.00
C96    C     0.00854   0.58118   0.81310   0.00000  Uiso   1.00
C97    C     0.12312   0.67071   0.86758   0.00000  Uiso   1.00
C98    C     0.78282   0.44126   0.78600   0.00000  Uiso   1.00
C99    C     0.75299   0.37608   0.79185   0.00000  Uiso   1.00
C100   C     0.72850   0.37533   0.83969   0.00000  Uiso   1.00
C101   C     0.68097   0.34572   0.90954   0.00000  Uiso   1.00
C102   C     0.77527   0.48194   0.70014   0.00000  Uiso   1.00
C103   C     0.73905   0.45096   0.63380   0.00000  Uiso   1.00
C104   C     0.70819   0.48446   0.60935   0.00000  Uiso   1.00
C105   C     0.64892   0.51801   0.54589   0.00000  Uiso   1.00
C106   C     0.82248   0.56878   0.81160   0.00000  Uiso   1.00
C107   C     0.89240   0.58021   0.81658   0.00000  Uiso   1.00
C108   C     0.95573   0.64408   0.85609   0.00000  Uiso   1.00
C109   C     0.01375   0.64352   0.85366   0.00000  Uiso   1.00
C110   C     0.78802   0.50348   0.82650   0.00000  Uiso   1.00
C111   C     0.76357   0.50282   0.87434   0.00000  Uiso   1.00
C112   C     0.73371   0.43767   0.88026   0.00000  Uiso   1.00
C113   C     0.78046   0.54416   0.74064   0.00000  Uiso   1.00
C114   C     0.74964   0.57771   0.71629   0.00000  Uiso   1.00
C115   C     0.71339   0.54679   0.64992   0.00000  Uiso   1.00
H116   H     0.80887   0.40578   0.70552   0.00000  Uiso   1.00
H117   H     0.94111   0.46917   0.74226   0.00000  Uiso   1.00
H118   H     0.74897   0.32794   0.76050   0.00000  Uiso   1.00
H119   H     0.73505   0.40281   0.60247   0.00000  Uiso   1.00
H120   H     0.09001   0.56687   0.80087   0.00000  Uiso   1.00
H121   H     0.68486   0.26907   0.83932   0.00000  Uiso   1.00
H122   H     0.65549   0.42695   0.50609   0.00000  Uiso   1.00
H123   H     0.82652   0.61723   0.84313   0.00000  Uiso   1.00
H124   H     0.95973   0.69222   0.88742   0.00000  Uiso   1.00
H125   H     0.76759   0.55099   0.90566   0.00000  Uiso   1.00
H126   H     0.75367   0.62586   0.74764   0.00000  Uiso   1.00
H127   H     0.10512   0.74791   0.91869   0.00000  Uiso   1.00
H128   H     0.69997   0.45011   0.95714   0.00000  Uiso   1.00
H129   H     0.67060   0.60799   0.62391   0.00000  Uiso   1.00
O130   O     0.18488   0.70290   0.88645   0.00000  Uiso   1.00
O131   O     0.65332   0.31219   0.93689   0.00000  Uiso   1.00
O132   O     0.61480   0.51933   0.49970   0.00000  Uiso   1.00
N133   N     0.07528   0.59919   0.82251   0.00000  Uiso   1.00
N134   N     0.69650   0.32077   0.85847   0.00000  Uiso   1.00
N135   N     0.66903   0.46836   0.54692   0.00000  Uiso   1.00
N136   N     0.08342   0.69661   0.88591   0.00000  Uiso   1.00
N137   N     0.70463   0.41819   0.92187   0.00000  Uiso   1.00
N138   N     0.67716   0.56578   0.61032   0.00000  Uiso   1.00
C139   C     0.20247   0.98175   0.27324   0.00000  Uiso   1.00
C140   C     0.23973   0.03119   0.34528   0.00000  Uiso   1.00
C141   C     0.22170   0.01370   0.39292   0.00000  Uiso   1.00
C142   C     0.26233   0.06639   0.45600   0.00000  Uiso   1.00
C143   C     0.31159   0.13284   0.56562   0.00000  Uiso   1.00
C144   C     0.25662   0.97519   0.25230   0.00000  Uiso   1.00
C145   C     0.25280   0.91061   0.22175   0.00000  Uiso   1.00
C146   C     0.30765   0.91616   0.20655   0.00000  Uiso   1.00
C147   C     0.38313   0.89567   0.17177   0.00000  Uiso   1.00
C148   C     0.18246   0.02432   0.24084   0.00000  Uiso   1.00
C149   C     0.11629   0.00103   0.20064   0.00000  Uiso   1.00
C150   C     0.10870   0.04794   0.17578   0.00000  Uiso   1.00
C151   C     0.06903   0.10372   0.12321   0.00000  Uiso   1.00
C152   C     0.30667   0.10644   0.30054   0.00000  Uiso   1.00
C153   C     0.29632   0.09892   0.36011   0.00000  Uiso   1.00
C154   C     0.33699   0.15165   0.42313   0.00000  Uiso   1.00
C155   C     0.31903   0.13424   0.47086   0.00000  Uiso   1.00
C156   C     0.31322   0.04291   0.26713   0.00000  Uiso   1.00
C157   C     0.36809   0.04856   0.25196   0.00000  Uiso   1.00
C158   C     0.36435   0.98401   0.22141   0.00000  Uiso   1.00
C159   C     0.23906   0.09204   0.25567   0.00000  Uiso   1.00
C160   C     0.23157   0.13899   0.23086   0.00000  Uiso   1.00
C161   C     0.16540   0.11579   0.19064   0.00000  Uiso   1.00
H162   H     0.15840   0.92902   0.26169   0.00000  Uiso   1.00
H163   H     0.17790   0.96128   0.38143   0.00000  Uiso   1.00
H164   H     0.20899   0.85821   0.21028   0.00000  Uiso   1.00
H165   H     0.07250   0.94862   0.18918   0.00000  Uiso   1.00
H166   H     0.22449   0.02689   0.52072   0.00000  Uiso   1.00
H167   H     0.29004   0.80956   0.15983   0.00000  Uiso   1.00
H168   H     0.00222   0.00021   0.11533   0.00000  Uiso   1.00
H169   H     0.35073   0.15917   0.31208   0.00000  Uiso   1.00
H170   H     0.38078   0.20405   0.43459   0.00000  Uiso   1.00
H171   H     0.41187   0.10098   0.26344   0.00000  Uiso   1.00
H172   H     0.27538   0.19140   0.24234   0.00000  Uiso   1.00
H173   H     0.38916   0.22394   0.56387   0.00000  Uiso   1.00
H174   H     0.45470   0.00661   0.20297   0.00000  Uiso   1.00
H175   H     0.16689   0.19726   0.15848   0.00000  Uiso   1.00
O176   O     0.32314   0.15078   0.62198   0.00000  Uiso   1.00
O177   O     0.40912   0.86565   0.14849   0.00000  Uiso   1.00
O178   O     0.03151   0.11578   0.09012   0.00000  Uiso   1.00
N179   N     0.25911   0.06711   0.51406   0.00000  Uiso   1.00
N180   N     0.32040   0.86392   0.17666   0.00000  Uiso   1.00
N181   N     0.05131   0.04216   0.13504   0.00000  Uiso   1.00
N182   N     0.34772   0.17314   0.53728   0.00000  Uiso   1.00
N183   N     0.40901   0.96995   0.19988   0.00000  Uiso   1.00
N184   N     0.13992   0.14819   0.15826   0.00000  Uiso   1.00
C185   C     0.79695   0.48074   0.20862   0.00000  Uiso   1.00
C186   C     0.86790   0.54922   0.23489   0.00000  Uiso   1.00
C187   C     0.88100   0.61426   0.23131   0.00000  Uiso   1.00
C188   C     0.94946   0.67052   0.25825   0.00000  Uiso   1.00
C189   C     0.05152   0.77817   0.29458   0.00000  Uiso   1.00
C190   C     0.79160   0.46236   0.26551   0.00000  Uiso   1.00
C191   C     0.74053   0.45436   0.28767   0.00000  Uiso   1.00
C192   C     0.74476   0.43749   0.34038   0.00000  Uiso   1.00
C193   C     0.72833   0.41023   0.42422   0.00000  Uiso   1.00
C194   C     0.79871   0.41985   0.16262   0.00000  Uiso   1.00
C195   C     0.75360   0.37608   0.09827   0.00000  Uiso   1.00
C196   C     0.76381   0.32341   0.06435   0.00000  Uiso   1.00
C197   C     0.75840   0.23014   0.98844   0.00000  Uiso   1.00
C198   C     0.89526   0.46500   0.26282   0.00000  Uiso   1.00
C199   C     0.92130   0.54067   0.26433   0.00000  Uiso   1.00
C200   C     0.98977   0.59685   0.29128   0.00000  Uiso   1.00
C201   C     0.00296   0.66196   0.28774   0.00000  Uiso   1.00
C202   C     0.84500   0.45381   0.29495   0.00000  Uiso   1.00
C203   C     0.84930   0.43695   0.34763   0.00000  Uiso   1.00
C204   C     0.79826   0.42893   0.36987   0.00000  Uiso   1.00
C205   C     0.85211   0.41130   0.19206   0.00000  Uiso   1.00
C206   C     0.86238   0.35868   0.15823   0.00000  Uiso   1.00
C207   C     0.81730   0.31484   0.09384   0.00000  Uiso   1.00
H208   H     0.75537   0.48739   0.18571   0.00000  Uiso   1.00
H209   H     0.83966   0.62086   0.20853   0.00000  Uiso   1.00
H210   H     0.69921   0.46097   0.26488   0.00000  Uiso   1.00
H211   H     0.71228   0.38271   0.07550   0.00000  Uiso   1.00
H212   H     0.95665   0.76506   0.24684   0.00000  Uiso   1.00
H213   H     0.66050   0.42792   0.36563   0.00000  Uiso   1.00
H214   H     0.68806   0.26289   0.96630   0.00000  Uiso   1.00
H215   H     0.93684   0.45834   0.28574   0.00000  Uiso   1.00
H216   H     0.03108   0.59022   0.31406   0.00000  Uiso   1.00
H217   H     0.89063   0.43033   0.37040   0.00000  Uiso   1.00
H218   H     0.90371   0.35208   0.18103   0.00000  Uiso   1.00
H219   H     0.11202   0.74020   0.33249   0.00000  Uiso   1.00
H220   H     0.81586   0.40304   0.45128   0.00000  Uiso   1.00
H221   H     0.84343   0.23802   0.05195   0.00000  Uiso   1.00
O222   O     0.09306   0.83991   0.30650   0.00000  Uiso   1.00
O223   O     0.70451   0.39757   0.46234   0.00000  Uiso   1.00
O224   O     0.74068   0.18107   0.93843   0.00000  Uiso   1.00
N225   N     0.98028   0.74111   0.26310   0.00000  Uiso   1.00
N226   N     0.70340   0.42591   0.37417   0.00000  Uiso   1.00
N227   N     0.72917   0.27161   0.00083   0.00000  Uiso   1.00
N228   N     0.06389   0.72773   0.30919   0.00000  Uiso   1.00
N229   N     0.78701   0.41253   0.42026   0.00000  Uiso   1.00
N230   N     0.81277   0.25823   0.04692   0.00000  Uiso   1.00
C231   C     0.26977   0.34960   0.89768   0.00000  Uiso   1.00
C232   C     0.30290   0.40931   0.96568   0.00000  Uiso   1.00
C233   C     0.36698   0.43587   0.01251   0.00000  Uiso   1.00
C234   C     0.38809   0.49058   0.07169   0.00000  Uiso   1.00
C235   C     0.44587   0.57920   0.17546   0.00000  Uiso   1.00
C236   C     0.25364   0.38265   0.85211   0.00000  Uiso   1.00
C237   C     0.27629   0.38678   0.80345   0.00000  Uiso   1.00
C238   C     0.25592   0.41904   0.76703   0.00000  Uiso   1.00
C239   C     0.23718   0.46621   0.69445   0.00000  Uiso   1.00
C240   C     0.20037   0.29106   0.89020   0.00000  Uiso   1.00
C241   C     0.17822   0.21818   0.87355   0.00000  Uiso   1.00
C242   C     0.11299   0.17332   0.86918   0.00000  Uiso   1.00
C243   C     0.01154   0.07828   0.85574   0.00000  Uiso   1.00
C244   C     0.19331   0.39952   0.91950   0.00000  Uiso   1.00
C245   C     0.26137   0.43642   0.97753   0.00000  Uiso   1.00
C246   C     0.28239   0.49110   0.03665   0.00000  Uiso   1.00
C247   C     0.34649   0.51774   0.08357   0.00000  Uiso   1.00
C248   C     0.21211   0.40976   0.86396   0.00000  Uiso   1.00
C249   C     0.19170   0.44201   0.82759   0.00000  Uiso   1.00
C250   C     0.21432   0.44620   0.77890   0.00000  Uiso   1.00
C251   C     0.15884   0.31817   0.90205   0.00000  Uiso   1.00
C252   C     0.09363   0.27341   0.89770   0.00000  Uiso   1.00
C253   C     0.07139   0.20048   0.88105   0.00000  Uiso   1.00
H254   H     0.30210   0.32849   0.88845   0.00000  Uiso   1.00
H255   H     0.39911   0.41488   0.00332   0.00000  Uiso   1.00
H256   H     0.30842   0.36579   0.79429   0.00000  Uiso   1.00
H257   H     0.21037   0.19722   0.86439   0.00000  Uiso   1.00
H258   H     0.48835   0.52263   0.13589   0.00000  Uiso   1.00
H259   H     0.29713   0.41911   0.69513   0.00000  Uiso   1.00
H260   H     0.09036   0.06363   0.84293   0.00000  Uiso   1.00
H261   H     0.16097   0.42063   0.92872   0.00000  Uiso   1.00
H262   H     0.25024   0.51207   0.04581   0.00000  Uiso   1.00
H263   H     0.15956   0.46299   0.83677   0.00000  Uiso   1.00
H264   H     0.06150   0.29441   0.90687   0.00000  Uiso   1.00
H265   H     0.36753   0.60152   0.17037   0.00000  Uiso   1.00
H266   H     0.17630   0.49799   0.72961   0.00000  Uiso   1.00
H267   H     0.96953   0.14252   0.87741   0.00000  Uiso   1.00
O268   O     0.48922   0.62059   0.22942   0.00000  Uiso   1.00
O269   O     0.23833   0.48475   0.65115   0.00000  Uiso   1.00
O270   O     0.96705   0.01838   0.84507   0.00000  Uiso   1.00
N271   N     0.44766   0.52864   0.12795   0.00000  Uiso   1.00
N272   N     0.26889   0.43186   0.71586   0.00000  Uiso   1.00
N273   N     0.07557   0.09951   0.85403   0.00000  Uiso   1.00
N274   N     0.38265   0.57109   0.14650   0.00000  Uiso   1.00
N275   N     0.20387   0.47431   0.73442   0.00000  Uiso   1.00
N276   N     0.01055   0.14196   0.87258   0.00000  Uiso   1.00
C277   C     0.17767   0.19350   0.61107   0.00000  Uiso   1.00
C278   C     0.13350   0.14086   0.54013   0.00000  Uiso   1.00
C279   C     0.11557   0.06895   0.51255   0.00000  Uiso   1.00
C280   C     0.07477   0.02981   0.44682   0.00000  Uiso   1.00
C281   C     0.00951   0.94323   0.34226   0.00000  Uiso   1.00
C282   C     0.13433   0.22036   0.63409   0.00000  Uiso   1.00
C283   C     0.11712   0.21530   0.68552   0.00000  Uiso   1.00
C284   C     0.07704   0.24309   0.69889   0.00000  Uiso   1.00
C285   C     0.01312   0.27999   0.74024   0.00000  Uiso   1.00
C286   C     0.23736   0.25928   0.61259   0.00000  Uiso   1.00
C287   C     0.30677   0.28697   0.64597   0.00000  Uiso   1.00
C288   C     0.35342   0.34755   0.64125   0.00000  Uiso   1.00
C289   C     0.44947   0.44488   0.64922   0.00000  Uiso   1.00
C290   C     0.13709   0.25186   0.54336   0.00000  Uiso   1.00
C291   C     0.11146   0.17256   0.50335   0.00000  Uiso   1.00
C292   C     0.07068   0.13352   0.43764   0.00000  Uiso   1.00
C293   C     0.05269   0.06156   0.40997   0.00000  Uiso   1.00
C294   C     0.11230   0.25206   0.59731   0.00000  Uiso   1.00
C295   C     0.07223   0.27987   0.61061   0.00000  Uiso   1.00
C296   C     0.05496   0.27485   0.66205   0.00000  Uiso   1.00
C297   C     0.21532   0.29098   0.57581   0.00000  Uiso   1.00
C298   C     0.26188   0.35153   0.57105   0.00000  Uiso   1.00
C299   C     0.33135   0.37930   0.60440   0.00000  Uiso   1.00
H300   H     0.19482   0.16883   0.63970   0.00000  Uiso   1.00
H301   H     0.13263   0.04444   0.54103   0.00000  Uiso   1.00
H302   H     0.13419   0.19078   0.71398   0.00000  Uiso   1.00
H303   H     0.32380   0.26243   0.67442   0.00000  Uiso   1.00
H304   H     0.05393   0.92050   0.41542   0.00000  Uiso   1.00
H305   H     0.05725   0.22908   0.78010   0.00000  Uiso   1.00
H306   H     0.45709   0.38018   0.69669   0.00000  Uiso   1.00
H307   H     0.11993   0.27654   0.51473   0.00000  Uiso   1.00
H308   H     0.05363   0.15806   0.40919   0.00000  Uiso   1.00
H309   H     0.05519   0.30440   0.58214   0.00000  Uiso   1.00
H310   H     0.24480   0.37605   0.54258   0.00000  Uiso   1.00
H311   H     0.98981   0.01272   0.30842   0.00000  Uiso   1.00
H312   H     0.99313   0.32130   0.67310   0.00000  Uiso   1.00
H313   H     0.39297   0.47239   0.58969   0.00000  Uiso   1.00
O314   O     0.97959   0.88672   0.29475   0.00000  Uiso   1.00
O315   O     0.98395   0.29157   0.77321   0.00000  Uiso   1.00
O316   O     0.50853   0.48981   0.66378   0.00000  Uiso   1.00
N317   N     0.04795   0.95847   0.40472   0.00000  Uiso   1.00
N318   N     0.05104   0.24696   0.74567   0.00000  Uiso   1.00
N319   N     0.42486   0.38824   0.66770   0.00000  Uiso   1.00
N320   N     0.01345   0.00809   0.34714   0.00000  Uiso   1.00
N321   N     0.01654   0.29658   0.68809   0.00000  Uiso   1.00
N322   N     0.39036   0.43786   0.61012   0.00000  Uiso   1.00
C323   C     0.52076   0.28375   0.10013   0.00000  Uiso   1.00
C324   C     0.44317   0.23016   0.06440   0.00000  Uiso   1.00
C325   C     0.40400   0.20850   0.00027   0.00000  Uiso   1.00
C326   C     0.33380   0.15898   0.97659   0.00000  Uiso   1.00
C327   C     0.21787   0.07981   0.91516   0.00000  Uiso   1.00
C328   C     0.55006   0.24345   0.12684   0.00000  Uiso   1.00
C329   C     0.60077   0.23299   0.11521   0.00000  Uiso   1.00
C330   C     0.62054   0.19467   0.14410   0.00000  Uiso   1.00
C331   C     0.67059   0.13619   0.17965   0.00000  Uiso   1.00
C332   C     0.53135   0.34377   0.15846   0.00000  Uiso   1.00
C333   C     0.56634   0.41765   0.17343   0.00000  Uiso   1.00
C334   C     0.57038   0.46379   0.22894   0.00000  Uiso   1.00
C335   C     0.59138   0.56107   0.31358   0.00000  Uiso   1.00
C336   C     0.46573   0.23432   0.17211   0.00000  Uiso   1.00
C337   C     0.41328   0.20331   0.10350   0.00000  Uiso   1.00
C338   C     0.34311   0.15381   0.07991   0.00000  Uiso   1.00
C339   C     0.30385   0.13208   0.01575   0.00000  Uiso   1.00
C340   C     0.52017   0.21660   0.16594   0.00000  Uiso   1.00
C341   C     0.53987   0.17830   0.19485   0.00000  Uiso   1.00
C342   C     0.59059   0.16777   0.18326   0.00000  Uiso   1.00
C343   C     0.50145   0.31692   0.19756   0.00000  Uiso   1.00
C344   C     0.50544   0.36296   0.25306   0.00000  Uiso   1.00
C345   C     0.54043   0.43690   0.26811   0.00000  Uiso   1.00
H346   H     0.54404   0.30465   0.06969   0.00000  Uiso   1.00
H347   H     0.42716   0.22928   0.97003   0.00000  Uiso   1.00
H348   H     0.62389   0.25378   0.08496   0.00000  Uiso   1.00
H349   H     0.58947   0.43841   0.14316   0.00000  Uiso   1.00
H350   H     0.28439   0.13386   0.87677   0.00000  Uiso   1.00
H351   H     0.69924   0.18552   0.11913   0.00000  Uiso   1.00
H352   H     0.62665   0.57486   0.24186   0.00000  Uiso   1.00
H353   H     0.44246   0.21342   0.20255   0.00000  Uiso   1.00
H354   H     0.31999   0.13304   0.11017   0.00000  Uiso   1.00
H355   H     0.51673   0.15753   0.22510   0.00000  Uiso   1.00
H356   H     0.48231   0.34216   0.28330   0.00000  Uiso   1.00
H357   H     0.19741   0.05574   0.99052   0.00000  Uiso   1.00
H358   H     0.61226   0.10741   0.23288   0.00000  Uiso   1.00
H359   H     0.53967   0.49674   0.35560   0.00000  Uiso   1.00
O360   O     0.16218   0.04355   0.87048   0.00000  Uiso   1.00
O361   O     0.70645   0.11135   0.18845   0.00000  Uiso   1.00
O362   O     0.61121   0.62215   0.34946   0.00000  Uiso   1.00
N363   N     0.28073   0.12652   0.91622   0.00000  Uiso   1.00
N364   N     0.66857   0.17481   0.14280   0.00000  Uiso   1.00
N365   N     0.60073   0.53881   0.25755   0.00000  Uiso   1.00
N366   N     0.23392   0.08448   0.97743   0.00000  Uiso   1.00
N367   N     0.62177   0.13278   0.20401   0.00000  Uiso   1.00
N368   N     0.55392   0.49678   0.31876   0.00000  Uiso   1.00
C369   C     0.07763   0.68357   0.09454   0.00000  Uiso   1.00
C370   C     0.04888   0.61543   0.03366   0.00000  Uiso   1.00
C371   C     0.98172   0.55598   0.00351   0.00000  Uiso   1.00
C372   C     0.96557   0.49902   0.94831   0.00000  Uiso   1.00
C373   C     0.91342   0.39286   0.85743   0.00000  Uiso   1.00
C374   C     0.10696   0.74764   0.07694   0.00000  Uiso   1.00
C375   C     0.08864   0.79936   0.08320   0.00000  Uiso   1.00
C376   C     0.12139   0.85371   0.06444   0.00000  Uiso   1.00
C377   C     0.15945   0.95285   0.04080   0.00000  Uiso   1.00
C378   C     0.13923   0.69077   0.14256   0.00000  Uiso   1.00
C379   C     0.14806   0.69468   0.20400   0.00000  Uiso   1.00
C380   C     0.20799   0.70117   0.24048   0.00000  Uiso   1.00
C381   C     0.29616   0.71199   0.31873   0.00000  Uiso   1.00
C382   C     0.16837   0.68814   0.05010   0.00000  Uiso   1.00
C383   C     0.09817   0.61792   0.00952   0.00000  Uiso   1.00
C384   C     0.08212   0.56103   0.95434   0.00000  Uiso   1.00
C385   C     0.01495   0.50151   0.92413   0.00000  Uiso   1.00
C386   C     0.15625   0.75013   0.05280   0.00000  Uiso   1.00
C387   C     0.18904   0.80442   0.03403   0.00000  Uiso   1.00
C388   C     0.17077   0.85620   0.04025   0.00000  Uiso   1.00
C389   C     0.18852   0.69325   0.11842   0.00000  Uiso   1.00
C390   C     0.24846   0.69974   0.15482   0.00000  Uiso   1.00
C391   C     0.25737   0.70366   0.21630   0.00000  Uiso   1.00
H392   H     0.03926   0.68164   0.11333   0.00000  Uiso   1.00
H393   H     0.94359   0.55408   0.02221   0.00000  Uiso   1.00
H394   H     0.05050   0.79743   0.10189   0.00000  Uiso   1.00
H395   H     0.10991   0.69276   0.22266   0.00000  Uiso   1.00
H396   H     0.85926   0.41376   0.91052   0.00000  Uiso   1.00
H397   H     0.08470   0.92689   0.07855   0.00000  Uiso   1.00
H398   H     0.20997   0.70618   0.33322   0.00000  Uiso   1.00
H399   H     0.20675   0.69007   0.03130   0.00000  Uiso   1.00
H400   H     0.12027   0.56297   0.93568   0.00000  Uiso   1.00
H401   H     0.22718   0.80633   0.01536   0.00000  Uiso   1.00
H402   H     0.28659   0.70166   0.13613   0.00000  Uiso   1.00
H403   H     0.00266   0.42098   0.84029   0.00000  Uiso   1.00
H404   H     0.22810   0.93412   0.00832   0.00000  Uiso   1.00
H405   H     0.35337   0.71340   0.26299   0.00000  Uiso   1.00
O406   O     0.87104   0.33362   0.81397   0.00000  Uiso   1.00
O407   O     0.16682   0.00684   0.03443   0.00000  Uiso   1.00
O408   O     0.33117   0.71726   0.36855   0.00000  Uiso   1.00
N409   N     0.90488   0.43290   0.90712   0.00000  Uiso   1.00
N410   N     0.11564   0.91264   0.06421   0.00000  Uiso   1.00
N411   N     0.23277   0.70631   0.30232   0.00000  Uiso   1.00
N412   N     0.98204   0.43678   0.86933   0.00000  Uiso   1.00
N413   N     0.19280   0.91652   0.02642   0.00000  Uiso   1.00
N414   N     0.30994   0.71020   0.26452   0.00000  Uiso   1.00
C415   C     0.68023   0.22384   0.60445   0.00000  Uiso   1.00
C416   C     0.64254   0.17233   0.53290   0.00000  Uiso   1.00
C417   C     0.65706   0.18922   0.48374   0.00000  Uiso   1.00
C418   C     0.61666   0.13457   0.42144   0.00000  Uiso   1.00
C419   C     0.56618   0.06510   0.31226   0.00000  Uiso   1.00
C420   C     0.62525   0.22653   0.62630   0.00000  Uiso   1.00
C421   C     0.62524   0.28899   0.65569   0.00000  Uiso   1.00
C422   C     0.57029   0.27996   0.67202   0.00000  Uiso   1.00
C423   C     0.49299   0.29464   0.70790   0.00000  Uiso   1.00
C424   C     0.70602   0.18558   0.63823   0.00000  Uiso   1.00
C425   C     0.77393   0.21362   0.67765   0.00000  Uiso   1.00
C426   C     0.78698   0.17012   0.70404   0.00000  Uiso   1.00
C427   C     0.83509   0.12122   0.75843   0.00000  Uiso   1.00
C428   C     0.58264   0.09676   0.58123   0.00000  Uiso   1.00
C429   C     0.58953   0.10331   0.52029   0.00000  Uiso   1.00
C430   C     0.54910   0.04862   0.45805   0.00000  Uiso   1.00
C431   C     0.56356   0.06542   0.40880   0.00000  Uiso   1.00
C432   C     0.57224   0.15750   0.61369   0.00000  Uiso   1.00
C433   C     0.51728   0.14838   0.63000   0.00000  Uiso   1.00
C434   C     0.51719   0.21081   0.65939   0.00000  Uiso   1.00
C435   C     0.65302   0.11655   0.62562   0.00000  Uiso   1.00
C436   C     0.66596   0.07301   0.65196   0.00000  Uiso   1.00
C437   C     0.73388   0.10097   0.69141   0.00000  Uiso   1.00
H438   H     0.72149   0.27758   0.61427   0.00000  Uiso   1.00
H439   H     0.69808   0.24265   0.49352   0.00000  Uiso   1.00
H440   H     0.66627   0.34239   0.66545   0.00000  Uiso   1.00
H441   H     0.81493   0.26703   0.68740   0.00000  Uiso   1.00
H442   H     0.64874   0.17348   0.35408   0.00000  Uiso   1.00
H443   H     0.58168   0.38381   0.71662   0.00000  Uiso   1.00
H444   H     0.89515   0.22490   0.76292   0.00000  Uiso   1.00
H445   H     0.54138   0.04302   0.57141   0.00000  Uiso   1.00
H446   H     0.50808   0.99521   0.44830   0.00000  Uiso   1.00
H447   H     0.47627   0.09496   0.62023   0.00000  Uiso   1.00
H448   H     0.62493   0.01960   0.64219   0.00000  Uiso   1.00
H449   H     0.49453   0.97265   0.31738   0.00000  Uiso   1.00
H450   H     0.42747   0.18298   0.67992   0.00000  Uiso   1.00
H451   H     0.74095   0.02407   0.72622   0.00000  Uiso   1.00
O452   O     0.55297   0.04586   0.25552   0.00000  Uiso   1.00
O453   O     0.46499   0.32180   0.73117   0.00000  Uiso   1.00
O454   O     0.87627   0.11331   0.79191   0.00000  Uiso   1.00
N455   N     0.61702   0.13277   0.36234   0.00000  Uiso   1.00
N456   N     0.55432   0.32942   0.70128   0.00000  Uiso   1.00
N457   N     0.84739   0.18086   0.74458   0.00000  Uiso   1.00
N458   N     0.53404   0.02471   0.34259   0.00000  Uiso   1.00
N459   N     0.47134   0.22135   0.68153   0.00000  Uiso   1.00
N460   N     0.76441   0.07279   0.72483   0.00000  Uiso   1.00
C461   C     0.12692   0.65919   0.65128   0.00000  Uiso   1.00
C462   C     0.05201   0.60190   0.63185   0.00000  Uiso   1.00
C463   C     0.02762   0.53153   0.62677   0.00000  Uiso   1.00
C464   C     0.95731   0.48746   0.60829   0.00000  Uiso   1.00
C465   C     0.84772   0.39463   0.58006   0.00000  Uiso   1.00
C466   C     0.12779   0.68279   0.59650   0.00000  Uiso   1.00
C467   C     0.16713   0.68043   0.56171   0.00000  Uiso   1.00
C468   C     0.16062   0.70446   0.51348   0.00000  Uiso   1.00
C469   C     0.16872   0.73725   0.43041   0.00000  Uiso   1.00
C470   C     0.14512   0.72500   0.70917   0.00000  Uiso   1.00
C471   C     0.19904   0.75815   0.76912   0.00000  Uiso   1.00
C472   C     0.20713   0.81773   0.81575   0.00000  Uiso   1.00
C473   C     0.24214   0.91607   0.90761   0.00000  Uiso   1.00
C474   C     0.04543   0.70607   0.62749   0.00000  Uiso   1.00
C475   C     0.00775   0.62737   0.61893   0.00000  Uiso   1.00
C476   C     0.93746   0.58340   0.60045   0.00000  Uiso   1.00
C477   C     0.91297   0.51297   0.59535   0.00000  Uiso   1.00
C478   C     0.08353   0.70825   0.58358   0.00000  Uiso   1.00
C479   C     0.07697   0.73230   0.53539   0.00000  Uiso   1.00
C480   C     0.11628   0.72997   0.50054   0.00000  Uiso   1.00
C481   C     0.10086   0.75047   0.69626   0.00000  Uiso   1.00
C482   C     0.10887   0.81002   0.74280   0.00000  Uiso   1.00
C483   C     0.16279   0.84325   0.80280   0.00000  Uiso   1.00
H484   H     0.16138   0.63936   0.66133   0.00000  Uiso   1.00
H485   H     0.06189   0.51184   0.63677   0.00000  Uiso   1.00
H486   H     0.20138   0.66072   0.57173   0.00000  Uiso   1.00
H487   H     0.23328   0.73843   0.77910   0.00000  Uiso   1.00
H488   H     0.93206   0.38168   0.60381   0.00000  Uiso   1.00
H489   H     0.22620   0.69563   0.46668   0.00000  Uiso   1.00
H490   H     0.29347   0.85949   0.90397   0.00000  Uiso   1.00
H491   H     0.01097   0.72590   0.61743   0.00000  Uiso   1.00
H492   H     0.90322   0.60312   0.59046   0.00000  Uiso   1.00
H493   H     0.04271   0.75201   0.52541   0.00000  Uiso   1.00
H494   H     0.07461   0.82971   0.73278   0.00000  Uiso   1.00
H495   H     0.80328   0.45576   0.56622   0.00000  Uiso   1.00
H496   H     0.09743   0.76972   0.42909   0.00000  Uiso   1.00
H497   H     0.16469   0.93358   0.86638   0.00000  Uiso   1.00
O498   O     0.79950   0.33638   0.56804   0.00000  Uiso   1.00
O499   O     0.18542   0.74829   0.38814   0.00000  Uiso   1.00
O500   O     0.27366   0.96326   0.96185   0.00000  Uiso   1.00
N501   N     0.91654   0.41597   0.59868   0.00000  Uiso   1.00
N502   N     0.19154   0.70948   0.47046   0.00000  Uiso   1.00
N503   N     0.25444   0.86269   0.87929   0.00000  Uiso   1.00
N504   N     0.84724   0.45583   0.57845   0.00000  Uiso   1.00
N505   N     0.12224   0.74935   0.45024   0.00000  Uiso   1.00
N506   N     0.18514   0.90256   0.85906   0.00000  Uiso   1.00
C507   C     0.54145   0.80607   0.04626   0.00000  Uiso   1.00
C508   C     0.48091   0.76126   0.98033   0.00000  Uiso   1.00
C509   C     0.41561   0.75007   0.96734   0.00000  Uiso   1.00
C510   C     0.36734   0.70737   0.90388   0.00000  Uiso   1.00
C511   C     0.27081   0.64239   0.80893   0.00000  Uiso   1.00
C512   C     0.56442   0.75512   0.05880   0.00000  Uiso   1.00
C513   C     0.56936   0.73878   0.11179   0.00000  Uiso   1.00
C514   C     0.59140   0.69092   0.11439   0.00000  Uiso   1.00
C515   C     0.62458   0.61645   0.14128   0.00000  Uiso   1.00
C516   C     0.59983   0.86348   0.03825   0.00000  Uiso   1.00
C517   C     0.63456   0.93825   0.07397   0.00000  Uiso   1.00
C518   C     0.68642   0.98163   0.05928   0.00000  Uiso   1.00
C519   C     0.77458   0.07540   0.05426   0.00000  Uiso   1.00
C520   C     0.57182   0.75013   0.95667   0.00000  Uiso   1.00
C521   C     0.49741   0.73087   0.93168   0.00000  Uiso   1.00
C522   C     0.44922   0.68818   0.86822   0.00000  Uiso   1.00
C523   C     0.38386   0.67694   0.85514   0.00000  Uiso   1.00
C524   C     0.58092   0.72474   0.01015   0.00000  Uiso   1.00
C525   C     0.60296   0.67689   0.01268   0.00000  Uiso   1.00
C526   C     0.60792   0.66048   0.06565   0.00000  Uiso   1.00
C527   C     0.61633   0.83310   0.98959   0.00000  Uiso   1.00
C528   C     0.66816   0.87636   0.97485   0.00000  Uiso   1.00
C529   C     0.70295   0.95119   0.01053   0.00000  Uiso   1.00
H530   H     0.52861   0.82972   0.08414   0.00000  Uiso   1.00
H531   H     0.40287   0.77359   0.00501   0.00000  Uiso   1.00
H532   H     0.55660   0.76231   0.14944   0.00000  Uiso   1.00
H533   H     0.62178   0.96175   0.11162   0.00000  Uiso   1.00
H534   H     0.27072   0.69794   0.89582   0.00000  Uiso   1.00
H535   H     0.59489   0.67417   0.20037   0.00000  Uiso   1.00
H536   H     0.73234   0.09473   0.12062   0.00000  Uiso   1.00
H537   H     0.58467   0.72647   0.91879   0.00000  Uiso   1.00
H538   H     0.46200   0.66468   0.83058   0.00000  Uiso   1.00
H539   H     0.61573   0.65339   0.97501   0.00000  Uiso   1.00
H540   H     0.68091   0.85283   0.93719   0.00000  Uiso   1.00
H541   H     0.31872   0.60954   0.75425   0.00000  Uiso   1.00
H542   H     0.64289   0.58577   0.05880   0.00000  Uiso   1.00
H543   H     0.78034   0.00633   0.97905   0.00000  Uiso   1.00
O544   O     0.21301   0.61493   0.76999   0.00000  Uiso   1.00
O545   O     0.63831   0.58376   0.16956   0.00000  Uiso   1.00
O546   O     0.81864   0.13552   0.06493   0.00000  Uiso   1.00
N547   N     0.29886   0.68563   0.87460   0.00000  Uiso   1.00
N548   N     0.60192   0.66339   0.15933   0.00000  Uiso   1.00
N549   N     0.73044   0.05658   0.08479   0.00000  Uiso   1.00
N550   N     0.32468   0.63806   0.79842   0.00000  Uiso   1.00
N551   N     0.62775   0.61583   0.08316   0.00000  Uiso   1.00
N552   N     0.75627   0.00901   0.00861   0.00000  Uiso   1.00
