data_job_03723
_audit_creation_date              2018-12-19
_audit_creation_method            'Materials Studio'
_symmetry_space_group_name_H-M    'P1'
_symmetry_Int_Tables_number       1
_symmetry_cell_setting            triclinic
loop_
_symmetry_equiv_pos_as_xyz
  x,y,z
_cell_length_a                    19.0613
_cell_length_b                    26.4107
_cell_length_c                    13.8160
_cell_angle_alpha                 90.0000
_cell_angle_beta                  90.0000
_cell_angle_gamma                 90.0000
loop_
_atom_site_label
_atom_site_type_symbol
_atom_site_fract_x
_atom_site_fract_y
_atom_site_fract_z
_atom_site_U_iso_or_equiv
_atom_site_adp_type
_atom_site_occupancy
C1     C     0.58411   0.16884   0.55509   0.00000  Uiso   1.00
C2     C     0.61499   0.19683   0.46846   0.00000  Uiso   1.00
C3     C     0.63210   0.24788   0.46560   0.00000  Uiso   1.00
C4     C     0.65975   0.26629   0.37954   0.00000  Uiso   1.00
C5     C     0.70612   0.31455   0.25721   0.00000  Uiso   1.00
C6     C     0.51611   0.14482   0.51943   0.00000  Uiso   1.00
C7     C     0.45009   0.15213   0.55944   0.00000  Uiso   1.00
C8     C     0.39450   0.12674   0.51629   0.00000  Uiso   1.00
C9     C     0.28738   0.09422   0.47315   0.00000  Uiso   1.00
C10    C     0.63400   0.12507   0.57613   0.00000  Uiso   1.00
C11    C     0.66710   0.11578   0.66382   0.00000  Uiso   1.00
C12    C     0.71075   0.07376   0.66842   0.00000  Uiso   1.00
C13    C     0.78667   0.01059   0.71331   0.00000  Uiso   1.00
C14    C     0.60276   0.11075   0.40734   0.00000  Uiso   1.00
C15    C     0.62511   0.16527   0.38821   0.00000  Uiso   1.00
C16    C     0.65274   0.18360   0.30213   0.00000  Uiso   1.00
C17    C     0.66990   0.23467   0.29914   0.00000  Uiso   1.00
C18    C     0.52624   0.11326   0.43918   0.00000  Uiso   1.00
C19    C     0.47073   0.08785   0.39597   0.00000  Uiso   1.00
C20    C     0.40465   0.09513   0.43590   0.00000  Uiso   1.00
C21    C     0.64413   0.09352   0.49588   0.00000  Uiso   1.00
C22    C     0.68774   0.05150   0.50035   0.00000  Uiso   1.00
C23    C     0.72090   0.04215   0.58802   0.00000  Uiso   1.00
H24    H     0.57621   0.19341   0.61757   0.00000  Uiso   1.00
H25    H     0.62425   0.27229   0.52772   0.00000  Uiso   1.00
H26    H     0.44227   0.17655   0.62155   0.00000  Uiso   1.00
H27    H     0.65924   0.14021   0.72591   0.00000  Uiso   1.00
H28    H     0.68195   0.34583   0.39269   0.00000  Uiso   1.00
H29    H     0.29824   0.14394   0.59057   0.00000  Uiso   1.00
H30    H     0.75577   0.06730   0.81063   0.00000  Uiso   1.00
H31    H     0.61064   0.08618   0.34486   0.00000  Uiso   1.00
H32    H     0.66058   0.15918   0.24004   0.00000  Uiso   1.00
H33    H     0.47859   0.06343   0.33387   0.00000  Uiso   1.00
H34    H     0.69556   0.02709   0.43823   0.00000  Uiso   1.00
H35    H     0.71143   0.25402   0.15920   0.00000  Uiso   1.00
H36    H     0.32772   0.05213   0.35708   0.00000  Uiso   1.00
H37    H     0.78525   0.97550   0.57714   0.00000  Uiso   1.00
O38    O     0.72889   0.34989   0.21190   0.00000  Uiso   1.00
O39    O     0.22549   0.08500   0.47152   0.00000  Uiso   1.00
O40    O     0.82575   0.98447   0.76023   0.00000  Uiso   1.00
N41    N     0.68205   0.31420   0.35213   0.00000  Uiso   1.00
N42    N     0.32330   0.12545   0.53712   0.00000  Uiso   1.00
N43    N     0.75104   0.05380   0.74287   0.00000  Uiso   1.00
N44    N     0.69791   0.26480   0.22649   0.00000  Uiso   1.00
N45    N     0.33917   0.07605   0.41148   0.00000  Uiso   1.00
N46    N     0.76690   0.00440   0.61723   0.00000  Uiso   1.00
C47    C     0.58411   0.66884   0.05509   0.00000  Uiso   1.00
C48    C     0.61499   0.69683   0.96846   0.00000  Uiso   1.00
C49    C     0.63210   0.74788   0.96560   0.00000  Uiso   1.00
C50    C     0.65975   0.76629   0.87954   0.00000  Uiso   1.00
C51    C     0.70612   0.81455   0.75721   0.00000  Uiso   1.00
C52    C     0.51611   0.64482   0.01943   0.00000  Uiso   1.00
C53    C     0.45009   0.65213   0.05944   0.00000  Uiso   1.00
C54    C     0.39450   0.62674   0.01629   0.00000  Uiso   1.00
C55    C     0.28738   0.59422   0.97315   0.00000  Uiso   1.00
C56    C     0.63400   0.62507   0.07613   0.00000  Uiso   1.00
C57    C     0.66710   0.61578   0.16382   0.00000  Uiso   1.00
C58    C     0.71075   0.57376   0.16842   0.00000  Uiso   1.00
C59    C     0.78667   0.51059   0.21331   0.00000  Uiso   1.00
C60    C     0.60276   0.61075   0.90734   0.00000  Uiso   1.00
C61    C     0.62511   0.66527   0.88821   0.00000  Uiso   1.00
C62    C     0.65274   0.68360   0.80213   0.00000  Uiso   1.00
C63    C     0.66990   0.73467   0.79914   0.00000  Uiso   1.00
C64    C     0.52624   0.61326   0.93918   0.00000  Uiso   1.00
C65    C     0.47073   0.58785   0.89597   0.00000  Uiso   1.00
C66    C     0.40465   0.59513   0.93590   0.00000  Uiso   1.00
C67    C     0.64413   0.59352   0.99588   0.00000  Uiso   1.00
C68    C     0.68774   0.55150   0.00035   0.00000  Uiso   1.00
C69    C     0.72090   0.54215   0.08802   0.00000  Uiso   1.00
H70    H     0.57621   0.69341   0.11757   0.00000  Uiso   1.00
H71    H     0.62425   0.77229   0.02772   0.00000  Uiso   1.00
H72    H     0.44227   0.67655   0.12155   0.00000  Uiso   1.00
H73    H     0.65924   0.64021   0.22591   0.00000  Uiso   1.00
H74    H     0.68195   0.84583   0.89269   0.00000  Uiso   1.00
H75    H     0.29824   0.64394   0.09057   0.00000  Uiso   1.00
H76    H     0.75577   0.56730   0.31063   0.00000  Uiso   1.00
H77    H     0.61064   0.58618   0.84486   0.00000  Uiso   1.00
H78    H     0.66058   0.65918   0.74004   0.00000  Uiso   1.00
H79    H     0.47859   0.56343   0.83387   0.00000  Uiso   1.00
H80    H     0.69556   0.52709   0.93823   0.00000  Uiso   1.00
H81    H     0.71143   0.75402   0.65920   0.00000  Uiso   1.00
H82    H     0.32772   0.55213   0.85708   0.00000  Uiso   1.00
H83    H     0.78525   0.47550   0.07714   0.00000  Uiso   1.00
O84    O     0.72889   0.84989   0.71190   0.00000  Uiso   1.00
O85    O     0.22549   0.58500   0.97152   0.00000  Uiso   1.00
O86    O     0.82575   0.48447   0.26023   0.00000  Uiso   1.00
N87    N     0.68205   0.81420   0.85213   0.00000  Uiso   1.00
N88    N     0.32330   0.62545   0.03712   0.00000  Uiso   1.00
N89    N     0.75104   0.55380   0.24287   0.00000  Uiso   1.00
N90    N     0.69791   0.76480   0.72649   0.00000  Uiso   1.00
N91    N     0.33917   0.57605   0.91148   0.00000  Uiso   1.00
N92    N     0.76690   0.50440   0.11723   0.00000  Uiso   1.00
C93    C     0.41589   0.83116   0.55509   0.00000  Uiso   1.00
C94    C     0.38501   0.80317   0.46846   0.00000  Uiso   1.00
C95    C     0.36790   0.75212   0.46560   0.00000  Uiso   1.00
C96    C     0.34025   0.73371   0.37954   0.00000  Uiso   1.00
C97    C     0.29388   0.68545   0.25721   0.00000  Uiso   1.00
C98    C     0.48389   0.85518   0.51943   0.00000  Uiso   1.00
C99    C     0.54991   0.84787   0.55944   0.00000  Uiso   1.00
C100   C     0.60550   0.87326   0.51629   0.00000  Uiso   1.00
C101   C     0.71262   0.90578   0.47315   0.00000  Uiso   1.00
C102   C     0.36600   0.87493   0.57613   0.00000  Uiso   1.00
C103   C     0.33290   0.88422   0.66382   0.00000  Uiso   1.00
C104   C     0.28925   0.92624   0.66842   0.00000  Uiso   1.00
C105   C     0.21333   0.98941   0.71331   0.00000  Uiso   1.00
C106   C     0.39724   0.88925   0.40734   0.00000  Uiso   1.00
C107   C     0.37489   0.83473   0.38821   0.00000  Uiso   1.00
C108   C     0.34726   0.81640   0.30213   0.00000  Uiso   1.00
C109   C     0.33010   0.76533   0.29914   0.00000  Uiso   1.00
C110   C     0.47376   0.88674   0.43918   0.00000  Uiso   1.00
C111   C     0.52927   0.91215   0.39597   0.00000  Uiso   1.00
C112   C     0.59535   0.90487   0.43590   0.00000  Uiso   1.00
C113   C     0.35587   0.90648   0.49588   0.00000  Uiso   1.00
C114   C     0.31226   0.94850   0.50035   0.00000  Uiso   1.00
C115   C     0.27910   0.95785   0.58802   0.00000  Uiso   1.00
H116   H     0.42379   0.80659   0.61757   0.00000  Uiso   1.00
H117   H     0.37575   0.72771   0.52772   0.00000  Uiso   1.00
H118   H     0.55773   0.82345   0.62155   0.00000  Uiso   1.00
H119   H     0.34076   0.85979   0.72591   0.00000  Uiso   1.00
H120   H     0.31805   0.65417   0.39269   0.00000  Uiso   1.00
H121   H     0.70176   0.85606   0.59057   0.00000  Uiso   1.00
H122   H     0.24423   0.93270   0.81063   0.00000  Uiso   1.00
H123   H     0.38936   0.91382   0.34486   0.00000  Uiso   1.00
H124   H     0.33942   0.84082   0.24004   0.00000  Uiso   1.00
H125   H     0.52141   0.93657   0.33387   0.00000  Uiso   1.00
H126   H     0.30444   0.97291   0.43823   0.00000  Uiso   1.00
H127   H     0.28857   0.74598   0.15920   0.00000  Uiso   1.00
H128   H     0.67228   0.94787   0.35708   0.00000  Uiso   1.00
H129   H     0.21475   0.02450   0.57714   0.00000  Uiso   1.00
O130   O     0.27111   0.65011   0.21190   0.00000  Uiso   1.00
O131   O     0.77451   0.91500   0.47152   0.00000  Uiso   1.00
O132   O     0.17425   0.01553   0.76023   0.00000  Uiso   1.00
N133   N     0.31795   0.68580   0.35213   0.00000  Uiso   1.00
N134   N     0.67670   0.87455   0.53712   0.00000  Uiso   1.00
N135   N     0.24896   0.94620   0.74287   0.00000  Uiso   1.00
N136   N     0.30209   0.73520   0.22649   0.00000  Uiso   1.00
N137   N     0.66083   0.92395   0.41148   0.00000  Uiso   1.00
N138   N     0.23310   0.99560   0.61723   0.00000  Uiso   1.00
C139   C     0.41589   0.33116   0.05509   0.00000  Uiso   1.00
C140   C     0.38501   0.30317   0.96846   0.00000  Uiso   1.00
C141   C     0.36790   0.25212   0.96560   0.00000  Uiso   1.00
C142   C     0.34025   0.23371   0.87954   0.00000  Uiso   1.00
C143   C     0.29388   0.18545   0.75721   0.00000  Uiso   1.00
C144   C     0.48389   0.35518   0.01943   0.00000  Uiso   1.00
C145   C     0.54991   0.34787   0.05944   0.00000  Uiso   1.00
C146   C     0.60550   0.37326   0.01629   0.00000  Uiso   1.00
C147   C     0.71262   0.40578   0.97315   0.00000  Uiso   1.00
C148   C     0.36600   0.37493   0.07613   0.00000  Uiso   1.00
C149   C     0.33290   0.38422   0.16382   0.00000  Uiso   1.00
C150   C     0.28925   0.42624   0.16842   0.00000  Uiso   1.00
C151   C     0.21333   0.48941   0.21331   0.00000  Uiso   1.00
C152   C     0.39724   0.38925   0.90734   0.00000  Uiso   1.00
C153   C     0.37489   0.33473   0.88821   0.00000  Uiso   1.00
C154   C     0.34726   0.31640   0.80213   0.00000  Uiso   1.00
C155   C     0.33010   0.26533   0.79914   0.00000  Uiso   1.00
C156   C     0.47376   0.38674   0.93918   0.00000  Uiso   1.00
C157   C     0.52927   0.41215   0.89597   0.00000  Uiso   1.00
C158   C     0.59535   0.40487   0.93590   0.00000  Uiso   1.00
C159   C     0.35587   0.40648   0.99588   0.00000  Uiso   1.00
C160   C     0.31226   0.44850   0.00035   0.00000  Uiso   1.00
C161   C     0.27910   0.45785   0.08802   0.00000  Uiso   1.00
H162   H     0.42379   0.30659   0.11757   0.00000  Uiso   1.00
H163   H     0.37575   0.22771   0.02772   0.00000  Uiso   1.00
H164   H     0.55773   0.32345   0.12155   0.00000  Uiso   1.00
H165   H     0.34076   0.35979   0.22591   0.00000  Uiso   1.00
H166   H     0.31805   0.15417   0.89269   0.00000  Uiso   1.00
H167   H     0.70176   0.35606   0.09057   0.00000  Uiso   1.00
H168   H     0.24423   0.43270   0.31063   0.00000  Uiso   1.00
H169   H     0.38936   0.41382   0.84486   0.00000  Uiso   1.00
H170   H     0.33942   0.34082   0.74004   0.00000  Uiso   1.00
H171   H     0.52141   0.43657   0.83387   0.00000  Uiso   1.00
H172   H     0.30444   0.47291   0.93823   0.00000  Uiso   1.00
H173   H     0.28857   0.24598   0.65920   0.00000  Uiso   1.00
H174   H     0.67228   0.44787   0.85708   0.00000  Uiso   1.00
H175   H     0.21475   0.52450   0.07714   0.00000  Uiso   1.00
O176   O     0.27111   0.15011   0.71190   0.00000  Uiso   1.00
O177   O     0.77451   0.41500   0.97152   0.00000  Uiso   1.00
O178   O     0.17425   0.51553   0.26023   0.00000  Uiso   1.00
N179   N     0.31795   0.18580   0.85213   0.00000  Uiso   1.00
N180   N     0.67670   0.37455   0.03712   0.00000  Uiso   1.00
N181   N     0.24896   0.44620   0.24287   0.00000  Uiso   1.00
N182   N     0.30209   0.23520   0.72649   0.00000  Uiso   1.00
N183   N     0.66083   0.42395   0.91148   0.00000  Uiso   1.00
N184   N     0.23310   0.49560   0.11723   0.00000  Uiso   1.00
C185   C     0.08411   0.33116   0.55509   0.00000  Uiso   1.00
C186   C     0.11499   0.30317   0.46846   0.00000  Uiso   1.00
C187   C     0.13210   0.25212   0.46560   0.00000  Uiso   1.00
C188   C     0.15975   0.23371   0.37954   0.00000  Uiso   1.00
C189   C     0.20612   0.18545   0.25721   0.00000  Uiso   1.00
C190   C     0.01611   0.35518   0.51943   0.00000  Uiso   1.00
C191   C     0.95009   0.34787   0.55944   0.00000  Uiso   1.00
C192   C     0.89450   0.37326   0.51629   0.00000  Uiso   1.00
C193   C     0.78738   0.40578   0.47315   0.00000  Uiso   1.00
C194   C     0.13400   0.37493   0.57613   0.00000  Uiso   1.00
C195   C     0.16710   0.38422   0.66382   0.00000  Uiso   1.00
C196   C     0.21075   0.42624   0.66842   0.00000  Uiso   1.00
C197   C     0.28667   0.48941   0.71331   0.00000  Uiso   1.00
C198   C     0.10276   0.38925   0.40734   0.00000  Uiso   1.00
C199   C     0.12511   0.33473   0.38821   0.00000  Uiso   1.00
C200   C     0.15274   0.31640   0.30213   0.00000  Uiso   1.00
C201   C     0.16990   0.26533   0.29914   0.00000  Uiso   1.00
C202   C     0.02624   0.38674   0.43918   0.00000  Uiso   1.00
C203   C     0.97073   0.41215   0.39597   0.00000  Uiso   1.00
C204   C     0.90465   0.40487   0.43590   0.00000  Uiso   1.00
C205   C     0.14413   0.40648   0.49588   0.00000  Uiso   1.00
C206   C     0.18774   0.44850   0.50035   0.00000  Uiso   1.00
C207   C     0.22090   0.45785   0.58802   0.00000  Uiso   1.00
H208   H     0.07621   0.30659   0.61757   0.00000  Uiso   1.00
H209   H     0.12425   0.22771   0.52772   0.00000  Uiso   1.00
H210   H     0.94227   0.32345   0.62155   0.00000  Uiso   1.00
H211   H     0.15924   0.35979   0.72591   0.00000  Uiso   1.00
H212   H     0.18195   0.15417   0.39269   0.00000  Uiso   1.00
H213   H     0.79824   0.35606   0.59057   0.00000  Uiso   1.00
H214   H     0.25577   0.43270   0.81063   0.00000  Uiso   1.00
H215   H     0.11064   0.41382   0.34486   0.00000  Uiso   1.00
H216   H     0.16058   0.34082   0.24004   0.00000  Uiso   1.00
H217   H     0.97859   0.43657   0.33387   0.00000  Uiso   1.00
H218   H     0.19556   0.47291   0.43823   0.00000  Uiso   1.00
H219   H     0.21143   0.24598   0.15920   0.00000  Uiso   1.00
H220   H     0.82772   0.44787   0.35708   0.00000  Uiso   1.00
H221   H     0.28525   0.52450   0.57714   0.00000  Uiso   1.00
O222   O     0.22889   0.15011   0.21190   0.00000  Uiso   1.00
O223   O     0.72549   0.41500   0.47152   0.00000  Uiso   1.00
O224   O     0.32575   0.51553   0.76023   0.00000  Uiso   1.00
N225   N     0.18205   0.18580   0.35213   0.00000  Uiso   1.00
N226   N     0.82330   0.37455   0.53712   0.00000  Uiso   1.00
N227   N     0.25104   0.44620   0.74287   0.00000  Uiso   1.00
N228   N     0.19791   0.23520   0.22649   0.00000  Uiso   1.00
N229   N     0.83917   0.42395   0.41148   0.00000  Uiso   1.00
N230   N     0.26690   0.49560   0.61723   0.00000  Uiso   1.00
C231   C     0.08411   0.83116   0.05509   0.00000  Uiso   1.00
C232   C     0.11499   0.80317   0.96846   0.00000  Uiso   1.00
C233   C     0.13210   0.75212   0.96560   0.00000  Uiso   1.00
C234   C     0.15975   0.73371   0.87954   0.00000  Uiso   1.00
C235   C     0.20612   0.68545   0.75721   0.00000  Uiso   1.00
C236   C     0.01611   0.85518   0.01943   0.00000  Uiso   1.00
C237   C     0.95009   0.84787   0.05944   0.00000  Uiso   1.00
C238   C     0.89450   0.87326   0.01629   0.00000  Uiso   1.00
C239   C     0.78738   0.90578   0.97315   0.00000  Uiso   1.00
C240   C     0.13400   0.87493   0.07613   0.00000  Uiso   1.00
C241   C     0.16710   0.88422   0.16382   0.00000  Uiso   1.00
C242   C     0.21075   0.92624   0.16842   0.00000  Uiso   1.00
C243   C     0.28667   0.98941   0.21331   0.00000  Uiso   1.00
C244   C     0.10276   0.88925   0.90734   0.00000  Uiso   1.00
C245   C     0.12511   0.83473   0.88821   0.00000  Uiso   1.00
C246   C     0.15274   0.81640   0.80213   0.00000  Uiso   1.00
C247   C     0.16990   0.76533   0.79914   0.00000  Uiso   1.00
C248   C     0.02624   0.88674   0.93918   0.00000  Uiso   1.00
C249   C     0.97073   0.91215   0.89597   0.00000  Uiso   1.00
C250   C     0.90465   0.90487   0.93590   0.00000  Uiso   1.00
C251   C     0.14413   0.90648   0.99588   0.00000  Uiso   1.00
C252   C     0.18774   0.94850   0.00035   0.00000  Uiso   1.00
C253   C     0.22090   0.95785   0.08802   0.00000  Uiso   1.00
H254   H     0.07621   0.80659   0.11757   0.00000  Uiso   1.00
H255   H     0.12425   0.72771   0.02772   0.00000  Uiso   1.00
H256   H     0.94227   0.82345   0.12155   0.00000  Uiso   1.00
H257   H     0.15924   0.85979   0.22591   0.00000  Uiso   1.00
H258   H     0.18195   0.65417   0.89269   0.00000  Uiso   1.00
H259   H     0.79824   0.85606   0.09057   0.00000  Uiso   1.00
H260   H     0.25577   0.93270   0.31063   0.00000  Uiso   1.00
H261   H     0.11064   0.91382   0.84486   0.00000  Uiso   1.00
H262   H     0.16058   0.84082   0.74004   0.00000  Uiso   1.00
H263   H     0.97859   0.93657   0.83387   0.00000  Uiso   1.00
H264   H     0.19556   0.97291   0.93823   0.00000  Uiso   1.00
H265   H     0.21143   0.74598   0.65920   0.00000  Uiso   1.00
H266   H     0.82772   0.94787   0.85708   0.00000  Uiso   1.00
H267   H     0.28525   0.02450   0.07714   0.00000  Uiso   1.00
O268   O     0.22889   0.65011   0.71190   0.00000  Uiso   1.00
O269   O     0.72549   0.91500   0.97152   0.00000  Uiso   1.00
O270   O     0.32575   0.01553   0.26023   0.00000  Uiso   1.00
N271   N     0.18205   0.68580   0.85213   0.00000  Uiso   1.00
N272   N     0.82330   0.87455   0.03712   0.00000  Uiso   1.00
N273   N     0.25104   0.94620   0.24287   0.00000  Uiso   1.00
N274   N     0.19791   0.73520   0.72649   0.00000  Uiso   1.00
N275   N     0.83917   0.92395   0.91148   0.00000  Uiso   1.00
N276   N     0.26690   0.99560   0.11723   0.00000  Uiso   1.00
C277   C     0.91589   0.66884   0.55509   0.00000  Uiso   1.00
C278   C     0.88501   0.69683   0.46846   0.00000  Uiso   1.00
C279   C     0.86790   0.74788   0.46560   0.00000  Uiso   1.00
C280   C     0.84025   0.76629   0.37954   0.00000  Uiso   1.00
C281   C     0.79388   0.81455   0.25721   0.00000  Uiso   1.00
C282   C     0.98389   0.64482   0.51943   0.00000  Uiso   1.00
C283   C     0.04991   0.65213   0.55944   0.00000  Uiso   1.00
C284   C     0.10550   0.62674   0.51629   0.00000  Uiso   1.00
C285   C     0.21262   0.59422   0.47315   0.00000  Uiso   1.00
C286   C     0.86600   0.62507   0.57613   0.00000  Uiso   1.00
C287   C     0.83290   0.61578   0.66382   0.00000  Uiso   1.00
C288   C     0.78925   0.57376   0.66842   0.00000  Uiso   1.00
C289   C     0.71333   0.51059   0.71331   0.00000  Uiso   1.00
C290   C     0.89724   0.61075   0.40734   0.00000  Uiso   1.00
C291   C     0.87489   0.66527   0.38821   0.00000  Uiso   1.00
C292   C     0.84726   0.68360   0.30213   0.00000  Uiso   1.00
C293   C     0.83010   0.73467   0.29914   0.00000  Uiso   1.00
C294   C     0.97376   0.61326   0.43918   0.00000  Uiso   1.00
C295   C     0.02927   0.58785   0.39597   0.00000  Uiso   1.00
C296   C     0.09535   0.59513   0.43590   0.00000  Uiso   1.00
C297   C     0.85587   0.59352   0.49588   0.00000  Uiso   1.00
C298   C     0.81226   0.55150   0.50035   0.00000  Uiso   1.00
C299   C     0.77910   0.54215   0.58802   0.00000  Uiso   1.00
H300   H     0.92379   0.69341   0.61757   0.00000  Uiso   1.00
H301   H     0.87575   0.77229   0.52772   0.00000  Uiso   1.00
H302   H     0.05773   0.67655   0.62155   0.00000  Uiso   1.00
H303   H     0.84076   0.64021   0.72591   0.00000  Uiso   1.00
H304   H     0.81805   0.84583   0.39269   0.00000  Uiso   1.00
H305   H     0.20176   0.64394   0.59057   0.00000  Uiso   1.00
H306   H     0.74423   0.56730   0.81063   0.00000  Uiso   1.00
H307   H     0.88936   0.58618   0.34486   0.00000  Uiso   1.00
H308   H     0.83942   0.65918   0.24004   0.00000  Uiso   1.00
H309   H     0.02141   0.56343   0.33387   0.00000  Uiso   1.00
H310   H     0.80444   0.52709   0.43823   0.00000  Uiso   1.00
H311   H     0.78857   0.75402   0.15920   0.00000  Uiso   1.00
H312   H     0.17228   0.55213   0.35708   0.00000  Uiso   1.00
H313   H     0.71475   0.47550   0.57714   0.00000  Uiso   1.00
O314   O     0.77111   0.84989   0.21190   0.00000  Uiso   1.00
O315   O     0.27451   0.58500   0.47152   0.00000  Uiso   1.00
O316   O     0.67425   0.48447   0.76023   0.00000  Uiso   1.00
N317   N     0.81795   0.81420   0.35213   0.00000  Uiso   1.00
N318   N     0.17670   0.62545   0.53712   0.00000  Uiso   1.00
N319   N     0.74896   0.55380   0.74287   0.00000  Uiso   1.00
N320   N     0.80209   0.76480   0.22649   0.00000  Uiso   1.00
N321   N     0.16083   0.57605   0.41148   0.00000  Uiso   1.00
N322   N     0.73310   0.50440   0.61723   0.00000  Uiso   1.00
C323   C     0.91589   0.16884   0.05509   0.00000  Uiso   1.00
C324   C     0.88501   0.19683   0.96846   0.00000  Uiso   1.00
C325   C     0.86790   0.24788   0.96560   0.00000  Uiso   1.00
C326   C     0.84025   0.26629   0.87954   0.00000  Uiso   1.00
C327   C     0.79388   0.31455   0.75721   0.00000  Uiso   1.00
C328   C     0.98389   0.14482   0.01943   0.00000  Uiso   1.00
C329   C     0.04991   0.15213   0.05944   0.00000  Uiso   1.00
C330   C     0.10550   0.12674   0.01629   0.00000  Uiso   1.00
C331   C     0.21262   0.09422   0.97315   0.00000  Uiso   1.00
C332   C     0.86600   0.12507   0.07613   0.00000  Uiso   1.00
C333   C     0.83290   0.11578   0.16382   0.00000  Uiso   1.00
C334   C     0.78925   0.07376   0.16842   0.00000  Uiso   1.00
C335   C     0.71333   0.01059   0.21331   0.00000  Uiso   1.00
C336   C     0.89724   0.11075   0.90734   0.00000  Uiso   1.00
C337   C     0.87489   0.16527   0.88821   0.00000  Uiso   1.00
C338   C     0.84726   0.18360   0.80213   0.00000  Uiso   1.00
C339   C     0.83010   0.23467   0.79914   0.00000  Uiso   1.00
C340   C     0.97376   0.11326   0.93918   0.00000  Uiso   1.00
C341   C     0.02927   0.08785   0.89597   0.00000  Uiso   1.00
C342   C     0.09535   0.09513   0.93590   0.00000  Uiso   1.00
C343   C     0.85587   0.09352   0.99588   0.00000  Uiso   1.00
C344   C     0.81226   0.05150   0.00035   0.00000  Uiso   1.00
C345   C     0.77910   0.04215   0.08802   0.00000  Uiso   1.00
H346   H     0.92379   0.19341   0.11757   0.00000  Uiso   1.00
H347   H     0.87575   0.27229   0.02772   0.00000  Uiso   1.00
H348   H     0.05773   0.17655   0.12155   0.00000  Uiso   1.00
H349   H     0.84076   0.14021   0.22591   0.00000  Uiso   1.00
H350   H     0.81805   0.34583   0.89269   0.00000  Uiso   1.00
H351   H     0.20176   0.14394   0.09057   0.00000  Uiso   1.00
H352   H     0.74423   0.06730   0.31063   0.00000  Uiso   1.00
H353   H     0.88936   0.08618   0.84486   0.00000  Uiso   1.00
H354   H     0.83942   0.15918   0.74004   0.00000  Uiso   1.00
H355   H     0.02141   0.06343   0.83387   0.00000  Uiso   1.00
H356   H     0.80444   0.02709   0.93823   0.00000  Uiso   1.00
H357   H     0.78857   0.25402   0.65920   0.00000  Uiso   1.00
H358   H     0.17228   0.05213   0.85708   0.00000  Uiso   1.00
H359   H     0.71475   0.97550   0.07714   0.00000  Uiso   1.00
O360   O     0.77111   0.34989   0.71190   0.00000  Uiso   1.00
O361   O     0.27451   0.08500   0.97152   0.00000  Uiso   1.00
O362   O     0.67425   0.98447   0.26023   0.00000  Uiso   1.00
N363   N     0.81795   0.31420   0.85213   0.00000  Uiso   1.00
N364   N     0.17670   0.12545   0.03712   0.00000  Uiso   1.00
N365   N     0.74896   0.05380   0.24287   0.00000  Uiso   1.00
N366   N     0.80209   0.26480   0.72649   0.00000  Uiso   1.00
N367   N     0.16083   0.07605   0.91148   0.00000  Uiso   1.00
N368   N     0.73310   0.00440   0.11723   0.00000  Uiso   1.00
