data_job_02502
_audit_creation_date              2018-12-19
_audit_creation_method            'Materials Studio'
_symmetry_space_group_name_H-M    'P1'
_symmetry_Int_Tables_number       1
_symmetry_cell_setting            triclinic
loop_
_symmetry_equiv_pos_as_xyz
  x,y,z
_cell_length_a                    11.5984
_cell_length_b                    11.5984
_cell_length_c                    45.4643
_cell_angle_alpha                 90.0000
_cell_angle_beta                  90.0000
_cell_angle_gamma                 90.0000
loop_
_atom_site_label
_atom_site_type_symbol
_atom_site_fract_x
_atom_site_fract_y
_atom_site_fract_z
_atom_site_U_iso_or_equiv
_atom_site_adp_type
_atom_site_occupancy
C1     C     0.11310   0.08711   0.68945   0.00000  Uiso   1.00
C2     C     0.13019   0.96227   0.69902   0.00000  Uiso   1.00
C3     C     0.04561   0.89064   0.71052   0.00000  Uiso   1.00
C4     C     0.07855   0.77929   0.71794   0.00000  Uiso   1.00
C5     C     0.08785   0.59128   0.73342   0.00000  Uiso   1.00
C6     C     0.20028   0.15786   0.70690   0.00000  Uiso   1.00
C7     C     0.17461   0.25069   0.72502   0.00000  Uiso   1.00
C8     C     0.26657   0.30400   0.73907   0.00000  Uiso   1.00
C9     C     0.38468   0.41970   0.76676   0.00000  Uiso   1.00
C10    C     0.15200   0.09299   0.65745   0.00000  Uiso   1.00
C11    C     0.08577   0.13131   0.63398   0.00000  Uiso   1.00
C12    C     0.13709   0.13003   0.60639   0.00000  Uiso   1.00
C13    C     0.18024   0.14500   0.55730   0.00000  Uiso   1.00
C14    C     0.32203   0.01675   0.68219   0.00000  Uiso   1.00
C15    C     0.24368   0.92405   0.69508   0.00000  Uiso   1.00
C16    C     0.27677   0.81279   0.70248   0.00000  Uiso   1.00
C17    C     0.19224   0.74100   0.71398   0.00000  Uiso   1.00
C18    C     0.31376   0.11964   0.70296   0.00000  Uiso   1.00
C19    C     0.40578   0.17284   0.71698   0.00000  Uiso   1.00
C20    C     0.38026   0.26571   0.73511   0.00000  Uiso   1.00
C21    C     0.26549   0.05477   0.65350   0.00000  Uiso   1.00
C22    C     0.31693   0.05345   0.62594   0.00000  Uiso   1.00
C23    C     0.25078   0.09174   0.60244   0.00000  Uiso   1.00
H24    H     0.02475   0.11687   0.69252   0.00000  Uiso   1.00
H25    H     0.95779   0.92025   0.71357   0.00000  Uiso   1.00
H26    H     0.08679   0.28025   0.72807   0.00000  Uiso   1.00
H27    H     0.99795   0.16087   0.63704   0.00000  Uiso   1.00
H28    H     0.93362   0.68542   0.73518   0.00000  Uiso   1.00
H29    H     0.20561   0.44452   0.76573   0.00000  Uiso   1.00
H30    H     0.01828   0.19280   0.57379   0.00000  Uiso   1.00
H31    H     0.41039   0.98699   0.67911   0.00000  Uiso   1.00
H32    H     0.36459   0.78324   0.69943   0.00000  Uiso   1.00
H33    H     0.49359   0.14324   0.71392   0.00000  Uiso   1.00
H34    H     0.40475   0.02386   0.62290   0.00000  Uiso   1.00
H35    H     0.26379   0.57421   0.72370   0.00000  Uiso   1.00
H36    H     0.53579   0.33332   0.75425   0.00000  Uiso   1.00
H37    H     0.34845   0.08160   0.56231   0.00000  Uiso   1.00
O38    O     0.06163   0.49813   0.74305   0.00000  Uiso   1.00
O39    O     0.41847   0.49406   0.78313   0.00000  Uiso   1.00
O40    O     0.17270   0.16381   0.53131   0.00000  Uiso   1.00
N41    N     0.01760   0.68720   0.72968   0.00000  Uiso   1.00
N42    N     0.27190   0.39691   0.75825   0.00000  Uiso   1.00
N43    N     0.09677   0.16160   0.57881   0.00000  Uiso   1.00
N44    N     0.19527   0.62736   0.72351   0.00000  Uiso   1.00
N45    N     0.44956   0.33707   0.75208   0.00000  Uiso   1.00
N46    N     0.27443   0.10176   0.57263   0.00000  Uiso   1.00
C47    C     0.88690   0.91289   0.18945   0.00000  Uiso   1.00
C48    C     0.86981   0.03773   0.19902   0.00000  Uiso   1.00
C49    C     0.95439   0.10936   0.21052   0.00000  Uiso   1.00
C50    C     0.92145   0.22071   0.21794   0.00000  Uiso   1.00
C51    C     0.91215   0.40872   0.23342   0.00000  Uiso   1.00
C52    C     0.79972   0.84214   0.20690   0.00000  Uiso   1.00
C53    C     0.82539   0.74931   0.22502   0.00000  Uiso   1.00
C54    C     0.73343   0.69600   0.23907   0.00000  Uiso   1.00
C55    C     0.61532   0.58030   0.26676   0.00000  Uiso   1.00
C56    C     0.84800   0.90701   0.15745   0.00000  Uiso   1.00
C57    C     0.91423   0.86869   0.13398   0.00000  Uiso   1.00
C58    C     0.86291   0.86997   0.10639   0.00000  Uiso   1.00
C59    C     0.81976   0.85500   0.05730   0.00000  Uiso   1.00
C60    C     0.67797   0.98325   0.18219   0.00000  Uiso   1.00
C61    C     0.75632   0.07595   0.19508   0.00000  Uiso   1.00
C62    C     0.72323   0.18721   0.20248   0.00000  Uiso   1.00
C63    C     0.80776   0.25900   0.21398   0.00000  Uiso   1.00
C64    C     0.68624   0.88036   0.20296   0.00000  Uiso   1.00
C65    C     0.59422   0.82716   0.21698   0.00000  Uiso   1.00
C66    C     0.61974   0.73429   0.23511   0.00000  Uiso   1.00
C67    C     0.73451   0.94523   0.15350   0.00000  Uiso   1.00
C68    C     0.68307   0.94655   0.12594   0.00000  Uiso   1.00
C69    C     0.74922   0.90826   0.10244   0.00000  Uiso   1.00
H70    H     0.97525   0.88313   0.19252   0.00000  Uiso   1.00
H71    H     0.04221   0.07975   0.21357   0.00000  Uiso   1.00
H72    H     0.91321   0.71975   0.22807   0.00000  Uiso   1.00
H73    H     0.00205   0.83913   0.13704   0.00000  Uiso   1.00
H74    H     0.06638   0.31458   0.23518   0.00000  Uiso   1.00
H75    H     0.79439   0.55548   0.26573   0.00000  Uiso   1.00
H76    H     0.98172   0.80720   0.07379   0.00000  Uiso   1.00
H77    H     0.58961   0.01301   0.17911   0.00000  Uiso   1.00
H78    H     0.63541   0.21676   0.19943   0.00000  Uiso   1.00
H79    H     0.50641   0.85676   0.21392   0.00000  Uiso   1.00
H80    H     0.59525   0.97614   0.12290   0.00000  Uiso   1.00
H81    H     0.73621   0.42579   0.22370   0.00000  Uiso   1.00
H82    H     0.46421   0.66668   0.25425   0.00000  Uiso   1.00
H83    H     0.65155   0.91840   0.06231   0.00000  Uiso   1.00
O84    O     0.93837   0.50187   0.24305   0.00000  Uiso   1.00
O85    O     0.58153   0.50594   0.28313   0.00000  Uiso   1.00
O86    O     0.82730   0.83619   0.03131   0.00000  Uiso   1.00
N87    N     0.98240   0.31280   0.22968   0.00000  Uiso   1.00
N88    N     0.72810   0.60309   0.25825   0.00000  Uiso   1.00
N89    N     0.90323   0.83840   0.07881   0.00000  Uiso   1.00
N90    N     0.80473   0.37264   0.22351   0.00000  Uiso   1.00
N91    N     0.55044   0.66293   0.25208   0.00000  Uiso   1.00
N92    N     0.72557   0.89824   0.07263   0.00000  Uiso   1.00
C93    C     0.41289   0.61310   0.43945   0.00000  Uiso   1.00
C94    C     0.53773   0.63019   0.44902   0.00000  Uiso   1.00
C95    C     0.60936   0.54561   0.46052   0.00000  Uiso   1.00
C96    C     0.72071   0.57855   0.46794   0.00000  Uiso   1.00
C97    C     0.90872   0.58785   0.48342   0.00000  Uiso   1.00
C98    C     0.34214   0.70028   0.45690   0.00000  Uiso   1.00
C99    C     0.24931   0.67461   0.47502   0.00000  Uiso   1.00
C100   C     0.19600   0.76657   0.48907   0.00000  Uiso   1.00
C101   C     0.08030   0.88468   0.51676   0.00000  Uiso   1.00
C102   C     0.40701   0.65200   0.40745   0.00000  Uiso   1.00
C103   C     0.36869   0.58577   0.38398   0.00000  Uiso   1.00
C104   C     0.36997   0.63709   0.35639   0.00000  Uiso   1.00
C105   C     0.35500   0.68024   0.30730   0.00000  Uiso   1.00
C106   C     0.48325   0.82203   0.43219   0.00000  Uiso   1.00
C107   C     0.57595   0.74368   0.44508   0.00000  Uiso   1.00
C108   C     0.68721   0.77677   0.45248   0.00000  Uiso   1.00
C109   C     0.75900   0.69224   0.46398   0.00000  Uiso   1.00
C110   C     0.38036   0.81376   0.45296   0.00000  Uiso   1.00
C111   C     0.32716   0.90578   0.46698   0.00000  Uiso   1.00
C112   C     0.23429   0.88026   0.48511   0.00000  Uiso   1.00
C113   C     0.44523   0.76549   0.40350   0.00000  Uiso   1.00
C114   C     0.44655   0.81693   0.37594   0.00000  Uiso   1.00
C115   C     0.40826   0.75078   0.35244   0.00000  Uiso   1.00
H116   H     0.38313   0.52475   0.44252   0.00000  Uiso   1.00
H117   H     0.57975   0.45779   0.46357   0.00000  Uiso   1.00
H118   H     0.21975   0.58679   0.47807   0.00000  Uiso   1.00
H119   H     0.33913   0.49795   0.38704   0.00000  Uiso   1.00
H120   H     0.81458   0.43362   0.48518   0.00000  Uiso   1.00
H121   H     0.05548   0.70561   0.51573   0.00000  Uiso   1.00
H122   H     0.30720   0.51828   0.32379   0.00000  Uiso   1.00
H123   H     0.51301   0.91039   0.42911   0.00000  Uiso   1.00
H124   H     0.71676   0.86459   0.44943   0.00000  Uiso   1.00
H125   H     0.35676   0.99359   0.46392   0.00000  Uiso   1.00
H126   H     0.47614   0.90475   0.37290   0.00000  Uiso   1.00
H127   H     0.92579   0.76379   0.47370   0.00000  Uiso   1.00
H128   H     0.16668   0.03579   0.50425   0.00000  Uiso   1.00
H129   H     0.41840   0.84845   0.31231   0.00000  Uiso   1.00
O130   O     0.00187   0.56163   0.49305   0.00000  Uiso   1.00
O131   O     0.00594   0.91847   0.53313   0.00000  Uiso   1.00
O132   O     0.33619   0.67270   0.28131   0.00000  Uiso   1.00
N133   N     0.81280   0.51760   0.47968   0.00000  Uiso   1.00
N134   N     0.10309   0.77190   0.50825   0.00000  Uiso   1.00
N135   N     0.33840   0.59677   0.32881   0.00000  Uiso   1.00
N136   N     0.87264   0.69527   0.47351   0.00000  Uiso   1.00
N137   N     0.16293   0.94956   0.50208   0.00000  Uiso   1.00
N138   N     0.39824   0.77443   0.32263   0.00000  Uiso   1.00
C139   C     0.58711   0.38690   0.93945   0.00000  Uiso   1.00
C140   C     0.46227   0.36981   0.94902   0.00000  Uiso   1.00
C141   C     0.39064   0.45439   0.96052   0.00000  Uiso   1.00
C142   C     0.27929   0.42145   0.96794   0.00000  Uiso   1.00
C143   C     0.09128   0.41215   0.98342   0.00000  Uiso   1.00
C144   C     0.65786   0.29972   0.95690   0.00000  Uiso   1.00
C145   C     0.75069   0.32539   0.97502   0.00000  Uiso   1.00
C146   C     0.80400   0.23343   0.98907   0.00000  Uiso   1.00
C147   C     0.91970   0.11532   0.01676   0.00000  Uiso   1.00
C148   C     0.59299   0.34800   0.90745   0.00000  Uiso   1.00
C149   C     0.63131   0.41423   0.88398   0.00000  Uiso   1.00
C150   C     0.63003   0.36291   0.85639   0.00000  Uiso   1.00
C151   C     0.64500   0.31976   0.80730   0.00000  Uiso   1.00
C152   C     0.51675   0.17797   0.93219   0.00000  Uiso   1.00
C153   C     0.42405   0.25632   0.94508   0.00000  Uiso   1.00
C154   C     0.31279   0.22323   0.95248   0.00000  Uiso   1.00
C155   C     0.24100   0.30776   0.96398   0.00000  Uiso   1.00
C156   C     0.61964   0.18624   0.95296   0.00000  Uiso   1.00
C157   C     0.67284   0.09422   0.96698   0.00000  Uiso   1.00
C158   C     0.76571   0.11974   0.98511   0.00000  Uiso   1.00
C159   C     0.55477   0.23451   0.90350   0.00000  Uiso   1.00
C160   C     0.55345   0.18307   0.87594   0.00000  Uiso   1.00
C161   C     0.59174   0.24922   0.85244   0.00000  Uiso   1.00
H162   H     0.61687   0.47525   0.94252   0.00000  Uiso   1.00
H163   H     0.42025   0.54221   0.96357   0.00000  Uiso   1.00
H164   H     0.78025   0.41321   0.97807   0.00000  Uiso   1.00
H165   H     0.66087   0.50205   0.88704   0.00000  Uiso   1.00
H166   H     0.18542   0.56638   0.98518   0.00000  Uiso   1.00
H167   H     0.94452   0.29439   0.01573   0.00000  Uiso   1.00
H168   H     0.69280   0.48172   0.82379   0.00000  Uiso   1.00
H169   H     0.48699   0.08961   0.92911   0.00000  Uiso   1.00
H170   H     0.28324   0.13541   0.94943   0.00000  Uiso   1.00
H171   H     0.64324   0.00641   0.96392   0.00000  Uiso   1.00
H172   H     0.52386   0.09525   0.87290   0.00000  Uiso   1.00
H173   H     0.07421   0.23621   0.97370   0.00000  Uiso   1.00
H174   H     0.83332   0.96421   0.00425   0.00000  Uiso   1.00
H175   H     0.58160   0.15155   0.81231   0.00000  Uiso   1.00
O176   O     0.99813   0.43837   0.99305   0.00000  Uiso   1.00
O177   O     0.99406   0.08153   0.03313   0.00000  Uiso   1.00
O178   O     0.66381   0.32730   0.78131   0.00000  Uiso   1.00
N179   N     0.18720   0.48240   0.97968   0.00000  Uiso   1.00
N180   N     0.89691   0.22810   0.00825   0.00000  Uiso   1.00
N181   N     0.66160   0.40323   0.82881   0.00000  Uiso   1.00
N182   N     0.12736   0.30473   0.97351   0.00000  Uiso   1.00
N183   N     0.83707   0.05044   0.00208   0.00000  Uiso   1.00
N184   N     0.60176   0.22557   0.82263   0.00000  Uiso   1.00
C185   C     0.38690   0.58711   0.06055   0.00000  Uiso   1.00
C186   C     0.36981   0.46227   0.05098   0.00000  Uiso   1.00
C187   C     0.45439   0.39064   0.03948   0.00000  Uiso   1.00
C188   C     0.42145   0.27929   0.03206   0.00000  Uiso   1.00
C189   C     0.41215   0.09128   0.01658   0.00000  Uiso   1.00
C190   C     0.29972   0.65786   0.04310   0.00000  Uiso   1.00
C191   C     0.32539   0.75069   0.02498   0.00000  Uiso   1.00
C192   C     0.23343   0.80400   0.01093   0.00000  Uiso   1.00
C193   C     0.11532   0.91970   0.98324   0.00000  Uiso   1.00
C194   C     0.34800   0.59299   0.09255   0.00000  Uiso   1.00
C195   C     0.41423   0.63131   0.11602   0.00000  Uiso   1.00
C196   C     0.36291   0.63003   0.14361   0.00000  Uiso   1.00
C197   C     0.31976   0.64500   0.19270   0.00000  Uiso   1.00
C198   C     0.17797   0.51675   0.06781   0.00000  Uiso   1.00
C199   C     0.25632   0.42405   0.05492   0.00000  Uiso   1.00
C200   C     0.22323   0.31279   0.04752   0.00000  Uiso   1.00
C201   C     0.30776   0.24100   0.03602   0.00000  Uiso   1.00
C202   C     0.18624   0.61964   0.04704   0.00000  Uiso   1.00
C203   C     0.09422   0.67284   0.03302   0.00000  Uiso   1.00
C204   C     0.11974   0.76571   0.01489   0.00000  Uiso   1.00
C205   C     0.23451   0.55477   0.09650   0.00000  Uiso   1.00
C206   C     0.18307   0.55345   0.12406   0.00000  Uiso   1.00
C207   C     0.24922   0.59174   0.14756   0.00000  Uiso   1.00
H208   H     0.47525   0.61687   0.05748   0.00000  Uiso   1.00
H209   H     0.54221   0.42025   0.03643   0.00000  Uiso   1.00
H210   H     0.41321   0.78025   0.02193   0.00000  Uiso   1.00
H211   H     0.50205   0.66087   0.11296   0.00000  Uiso   1.00
H212   H     0.56638   0.18542   0.01482   0.00000  Uiso   1.00
H213   H     0.29439   0.94452   0.98427   0.00000  Uiso   1.00
H214   H     0.48172   0.69280   0.17621   0.00000  Uiso   1.00
H215   H     0.08961   0.48699   0.07089   0.00000  Uiso   1.00
H216   H     0.13541   0.28324   0.05057   0.00000  Uiso   1.00
H217   H     0.00641   0.64324   0.03608   0.00000  Uiso   1.00
H218   H     0.09525   0.52386   0.12710   0.00000  Uiso   1.00
H219   H     0.23621   0.07421   0.02630   0.00000  Uiso   1.00
H220   H     0.96421   0.83332   0.99575   0.00000  Uiso   1.00
H221   H     0.15155   0.58160   0.18769   0.00000  Uiso   1.00
O222   O     0.43837   0.99813   0.00695   0.00000  Uiso   1.00
O223   O     0.08153   0.99406   0.96687   0.00000  Uiso   1.00
O224   O     0.32730   0.66381   0.21869   0.00000  Uiso   1.00
N225   N     0.48240   0.18720   0.02032   0.00000  Uiso   1.00
N226   N     0.22810   0.89691   0.99175   0.00000  Uiso   1.00
N227   N     0.40323   0.66160   0.17119   0.00000  Uiso   1.00
N228   N     0.30473   0.12736   0.02649   0.00000  Uiso   1.00
N229   N     0.05044   0.83707   0.99792   0.00000  Uiso   1.00
N230   N     0.22557   0.60176   0.17737   0.00000  Uiso   1.00
C231   C     0.61310   0.41289   0.56055   0.00000  Uiso   1.00
C232   C     0.63019   0.53773   0.55098   0.00000  Uiso   1.00
C233   C     0.54561   0.60936   0.53948   0.00000  Uiso   1.00
C234   C     0.57855   0.72071   0.53206   0.00000  Uiso   1.00
C235   C     0.58785   0.90872   0.51658   0.00000  Uiso   1.00
C236   C     0.70028   0.34214   0.54310   0.00000  Uiso   1.00
C237   C     0.67461   0.24931   0.52498   0.00000  Uiso   1.00
C238   C     0.76657   0.19600   0.51093   0.00000  Uiso   1.00
C239   C     0.88468   0.08030   0.48324   0.00000  Uiso   1.00
C240   C     0.65200   0.40701   0.59255   0.00000  Uiso   1.00
C241   C     0.58577   0.36869   0.61602   0.00000  Uiso   1.00
C242   C     0.63709   0.36997   0.64361   0.00000  Uiso   1.00
C243   C     0.68024   0.35500   0.69270   0.00000  Uiso   1.00
C244   C     0.82203   0.48325   0.56781   0.00000  Uiso   1.00
C245   C     0.74368   0.57595   0.55492   0.00000  Uiso   1.00
C246   C     0.77677   0.68721   0.54752   0.00000  Uiso   1.00
C247   C     0.69224   0.75900   0.53602   0.00000  Uiso   1.00
C248   C     0.81376   0.38036   0.54704   0.00000  Uiso   1.00
C249   C     0.90578   0.32716   0.53302   0.00000  Uiso   1.00
C250   C     0.88026   0.23429   0.51489   0.00000  Uiso   1.00
C251   C     0.76549   0.44523   0.59650   0.00000  Uiso   1.00
C252   C     0.81693   0.44655   0.62406   0.00000  Uiso   1.00
C253   C     0.75078   0.40826   0.64756   0.00000  Uiso   1.00
H254   H     0.52475   0.38313   0.55748   0.00000  Uiso   1.00
H255   H     0.45779   0.57975   0.53643   0.00000  Uiso   1.00
H256   H     0.58679   0.21975   0.52193   0.00000  Uiso   1.00
H257   H     0.49795   0.33913   0.61296   0.00000  Uiso   1.00
H258   H     0.43362   0.81458   0.51482   0.00000  Uiso   1.00
H259   H     0.70561   0.05548   0.48427   0.00000  Uiso   1.00
H260   H     0.51828   0.30720   0.67621   0.00000  Uiso   1.00
H261   H     0.91039   0.51301   0.57089   0.00000  Uiso   1.00
H262   H     0.86459   0.71676   0.55057   0.00000  Uiso   1.00
H263   H     0.99359   0.35676   0.53608   0.00000  Uiso   1.00
H264   H     0.90475   0.47614   0.62710   0.00000  Uiso   1.00
H265   H     0.76379   0.92579   0.52630   0.00000  Uiso   1.00
H266   H     0.03579   0.16668   0.49575   0.00000  Uiso   1.00
H267   H     0.84845   0.41840   0.68769   0.00000  Uiso   1.00
O268   O     0.56163   0.00187   0.50695   0.00000  Uiso   1.00
O269   O     0.91847   0.00594   0.46687   0.00000  Uiso   1.00
O270   O     0.67270   0.33619   0.71869   0.00000  Uiso   1.00
N271   N     0.51760   0.81280   0.52032   0.00000  Uiso   1.00
N272   N     0.77190   0.10309   0.49175   0.00000  Uiso   1.00
N273   N     0.59677   0.33840   0.67119   0.00000  Uiso   1.00
N274   N     0.69527   0.87264   0.52649   0.00000  Uiso   1.00
N275   N     0.94956   0.16293   0.49792   0.00000  Uiso   1.00
N276   N     0.77443   0.39824   0.67737   0.00000  Uiso   1.00
C277   C     0.08711   0.11310   0.31055   0.00000  Uiso   1.00
C278   C     0.96227   0.13019   0.30098   0.00000  Uiso   1.00
C279   C     0.89064   0.04561   0.28948   0.00000  Uiso   1.00
C280   C     0.77929   0.07855   0.28206   0.00000  Uiso   1.00
C281   C     0.59128   0.08785   0.26658   0.00000  Uiso   1.00
C282   C     0.15786   0.20028   0.29310   0.00000  Uiso   1.00
C283   C     0.25069   0.17461   0.27498   0.00000  Uiso   1.00
C284   C     0.30400   0.26657   0.26093   0.00000  Uiso   1.00
C285   C     0.41970   0.38468   0.23324   0.00000  Uiso   1.00
C286   C     0.09299   0.15200   0.34255   0.00000  Uiso   1.00
C287   C     0.13131   0.08577   0.36602   0.00000  Uiso   1.00
C288   C     0.13003   0.13709   0.39361   0.00000  Uiso   1.00
C289   C     0.14500   0.18024   0.44270   0.00000  Uiso   1.00
C290   C     0.01675   0.32203   0.31781   0.00000  Uiso   1.00
C291   C     0.92405   0.24368   0.30492   0.00000  Uiso   1.00
C292   C     0.81279   0.27677   0.29752   0.00000  Uiso   1.00
C293   C     0.74100   0.19224   0.28602   0.00000  Uiso   1.00
C294   C     0.11964   0.31376   0.29704   0.00000  Uiso   1.00
C295   C     0.17284   0.40578   0.28302   0.00000  Uiso   1.00
C296   C     0.26571   0.38026   0.26489   0.00000  Uiso   1.00
C297   C     0.05477   0.26549   0.34650   0.00000  Uiso   1.00
C298   C     0.05345   0.31693   0.37406   0.00000  Uiso   1.00
C299   C     0.09174   0.25078   0.39756   0.00000  Uiso   1.00
H300   H     0.11687   0.02475   0.30748   0.00000  Uiso   1.00
H301   H     0.92025   0.95779   0.28643   0.00000  Uiso   1.00
H302   H     0.28025   0.08679   0.27193   0.00000  Uiso   1.00
H303   H     0.16087   0.99795   0.36296   0.00000  Uiso   1.00
H304   H     0.68542   0.93362   0.26482   0.00000  Uiso   1.00
H305   H     0.44452   0.20561   0.23427   0.00000  Uiso   1.00
H306   H     0.19280   0.01828   0.42621   0.00000  Uiso   1.00
H307   H     0.98699   0.41039   0.32089   0.00000  Uiso   1.00
H308   H     0.78324   0.36459   0.30057   0.00000  Uiso   1.00
H309   H     0.14324   0.49359   0.28608   0.00000  Uiso   1.00
H310   H     0.02386   0.40475   0.37710   0.00000  Uiso   1.00
H311   H     0.57421   0.26379   0.27630   0.00000  Uiso   1.00
H312   H     0.33332   0.53579   0.24575   0.00000  Uiso   1.00
H313   H     0.08160   0.34845   0.43769   0.00000  Uiso   1.00
O314   O     0.49813   0.06163   0.25695   0.00000  Uiso   1.00
O315   O     0.49406   0.41847   0.21687   0.00000  Uiso   1.00
O316   O     0.16381   0.17270   0.46869   0.00000  Uiso   1.00
N317   N     0.68720   0.01760   0.27032   0.00000  Uiso   1.00
N318   N     0.39691   0.27190   0.24175   0.00000  Uiso   1.00
N319   N     0.16160   0.09677   0.42119   0.00000  Uiso   1.00
N320   N     0.62736   0.19527   0.27649   0.00000  Uiso   1.00
N321   N     0.33707   0.44956   0.24792   0.00000  Uiso   1.00
N322   N     0.10176   0.27443   0.42737   0.00000  Uiso   1.00
C323   C     0.91289   0.88690   0.81055   0.00000  Uiso   1.00
C324   C     0.03773   0.86981   0.80098   0.00000  Uiso   1.00
C325   C     0.10936   0.95439   0.78948   0.00000  Uiso   1.00
C326   C     0.22071   0.92145   0.78206   0.00000  Uiso   1.00
C327   C     0.40872   0.91215   0.76658   0.00000  Uiso   1.00
C328   C     0.84214   0.79972   0.79310   0.00000  Uiso   1.00
C329   C     0.74931   0.82539   0.77498   0.00000  Uiso   1.00
C330   C     0.69600   0.73343   0.76093   0.00000  Uiso   1.00
C331   C     0.58030   0.61532   0.73324   0.00000  Uiso   1.00
C332   C     0.90701   0.84800   0.84255   0.00000  Uiso   1.00
C333   C     0.86869   0.91423   0.86602   0.00000  Uiso   1.00
C334   C     0.86997   0.86291   0.89361   0.00000  Uiso   1.00
C335   C     0.85500   0.81976   0.94270   0.00000  Uiso   1.00
C336   C     0.98325   0.67797   0.81781   0.00000  Uiso   1.00
C337   C     0.07595   0.75632   0.80492   0.00000  Uiso   1.00
C338   C     0.18721   0.72323   0.79752   0.00000  Uiso   1.00
C339   C     0.25900   0.80776   0.78602   0.00000  Uiso   1.00
C340   C     0.88036   0.68624   0.79704   0.00000  Uiso   1.00
C341   C     0.82716   0.59422   0.78302   0.00000  Uiso   1.00
C342   C     0.73429   0.61974   0.76489   0.00000  Uiso   1.00
C343   C     0.94523   0.73451   0.84650   0.00000  Uiso   1.00
C344   C     0.94655   0.68307   0.87406   0.00000  Uiso   1.00
C345   C     0.90826   0.74922   0.89756   0.00000  Uiso   1.00
H346   H     0.88313   0.97525   0.80748   0.00000  Uiso   1.00
H347   H     0.07975   0.04221   0.78643   0.00000  Uiso   1.00
H348   H     0.71975   0.91321   0.77193   0.00000  Uiso   1.00
H349   H     0.83913   0.00205   0.86296   0.00000  Uiso   1.00
H350   H     0.31458   0.06638   0.76482   0.00000  Uiso   1.00
H351   H     0.55548   0.79439   0.73427   0.00000  Uiso   1.00
H352   H     0.80720   0.98172   0.92621   0.00000  Uiso   1.00
H353   H     0.01301   0.58961   0.82089   0.00000  Uiso   1.00
H354   H     0.21676   0.63541   0.80057   0.00000  Uiso   1.00
H355   H     0.85676   0.50641   0.78608   0.00000  Uiso   1.00
H356   H     0.97614   0.59525   0.87710   0.00000  Uiso   1.00
H357   H     0.42579   0.73621   0.77630   0.00000  Uiso   1.00
H358   H     0.66668   0.46421   0.74575   0.00000  Uiso   1.00
H359   H     0.91840   0.65155   0.93769   0.00000  Uiso   1.00
O360   O     0.50187   0.93837   0.75695   0.00000  Uiso   1.00
O361   O     0.50594   0.58153   0.71687   0.00000  Uiso   1.00
O362   O     0.83619   0.82730   0.96869   0.00000  Uiso   1.00
N363   N     0.31280   0.98240   0.77032   0.00000  Uiso   1.00
N364   N     0.60309   0.72810   0.74175   0.00000  Uiso   1.00
N365   N     0.83840   0.90323   0.92119   0.00000  Uiso   1.00
N366   N     0.37264   0.80473   0.77649   0.00000  Uiso   1.00
N367   N     0.66293   0.55044   0.74792   0.00000  Uiso   1.00
N368   N     0.89824   0.72557   0.92737   0.00000  Uiso   1.00
