data_job_05939
_audit_creation_date              2018-12-19
_audit_creation_method            'Materials Studio'
_symmetry_space_group_name_H-M    'P1'
_symmetry_Int_Tables_number       1
_symmetry_cell_setting            triclinic
loop_
_symmetry_equiv_pos_as_xyz
  x,y,z
_cell_length_a                    12.3228
_cell_length_b                    18.9666
_cell_length_c                    18.9964
_cell_angle_alpha                 64.7560
_cell_angle_beta                  77.4526
_cell_angle_gamma                 102.5546
loop_
_atom_site_label
_atom_site_type_symbol
_atom_site_fract_x
_atom_site_fract_y
_atom_site_fract_z
_atom_site_U_iso_or_equiv
_atom_site_adp_type
_atom_site_occupancy
C1     C     0.66891   0.42766   0.76677   0.00000  Uiso   1.00
C2     C     0.69595   0.52134   0.71975   0.00000  Uiso   1.00
C3     C     0.71331   0.57423   0.75226   0.00000  Uiso   1.00
C4     C     0.73705   0.65794   0.69918   0.00000  Uiso   1.00
C5     C     0.77804   0.79888   0.63875   0.00000  Uiso   1.00
C6     C     0.55333   0.38771   0.75956   0.00000  Uiso   1.00
C7     C     0.45079   0.32824   0.82554   0.00000  Uiso   1.00
C8     C     0.35448   0.29945   0.80596   0.00000  Uiso   1.00
C9     C     0.17408   0.23289   0.80734   0.00000  Uiso   1.00
C10    C     0.76518   0.41135   0.71678   0.00000  Uiso   1.00
C11    C     0.84076   0.37174   0.74678   0.00000  Uiso   1.00
C12    C     0.92280   0.36285   0.69119   0.00000  Uiso   1.00
C13    C     0.07134   0.33300   0.62614   0.00000  Uiso   1.00
C14    C     0.68021   0.48227   0.61470   0.00000  Uiso   1.00
C15    C     0.70208   0.55100   0.63715   0.00000  Uiso   1.00
C16    C     0.72581   0.63465   0.58401   0.00000  Uiso   1.00
C17    C     0.74321   0.68766   0.61643   0.00000  Uiso   1.00
C18    C     0.55946   0.41737   0.67697   0.00000  Uiso   1.00
C19    C     0.46329   0.38866   0.65729   0.00000  Uiso   1.00
C20    C     0.36063   0.32917   0.72322   0.00000  Uiso   1.00
C21    C     0.77132   0.44102   0.63418   0.00000  Uiso   1.00
C22    C     0.85326   0.43218   0.57853   0.00000  Uiso   1.00
C23    C     0.92895   0.39257   0.60845   0.00000  Uiso   1.00
H24    H     0.66413   0.40456   0.83107   0.00000  Uiso   1.00
H25    H     0.70854   0.55124   0.81618   0.00000  Uiso   1.00
H26    H     0.44607   0.30529   0.88945   0.00000  Uiso   1.00
H27    H     0.83598   0.34880   0.81070   0.00000  Uiso   1.00
H28    H     0.76045   0.72695   0.76326   0.00000  Uiso   1.00
H29    H     0.20703   0.20832   0.91774   0.00000  Uiso   1.00
H30    H     0.02923   0.30006   0.75170   0.00000  Uiso   1.00
H31    H     0.68498   0.50536   0.55039   0.00000  Uiso   1.00
H32    H     0.73055   0.65759   0.52009   0.00000  Uiso   1.00
H33    H     0.46807   0.41163   0.59336   0.00000  Uiso   1.00
H34    H     0.85798   0.45514   0.51462   0.00000  Uiso   1.00
H35    H     0.77831   0.81327   0.52294   0.00000  Uiso   1.00
H36    H     0.22488   0.29462   0.67743   0.00000  Uiso   1.00
H37    H     0.04708   0.38638   0.51138   0.00000  Uiso   1.00
O38    O     0.79894   0.86842   0.62825   0.00000  Uiso   1.00
O39    O     0.07288   0.18798   0.83093   0.00000  Uiso   1.00
O40    O     0.15159   0.30836   0.61308   0.00000  Uiso   1.00
N41    N     0.75843   0.72638   0.71085   0.00000  Uiso   1.00
N42    N     0.24100   0.24149   0.85529   0.00000  Uiso   1.00
N43    N     0.00967   0.32725   0.70006   0.00000  Uiso   1.00
N44    N     0.76803   0.77282   0.58154   0.00000  Uiso   1.00
N45    N     0.25061   0.28794   0.72598   0.00000  Uiso   1.00
N46    N     0.01928   0.37369   0.57074   0.00000  Uiso   1.00
C47    C     0.24028   0.80633   0.42480   0.00000  Uiso   1.00
C48    C     0.17359   0.75999   0.51836   0.00000  Uiso   1.00
C49    C     0.13813   0.67481   0.57093   0.00000  Uiso   1.00
C50    C     0.07810   0.64446   0.65458   0.00000  Uiso   1.00
C51    C     0.97810   0.56444   0.79529   0.00000  Uiso   1.00
C52    C     0.16455   0.85327   0.38515   0.00000  Uiso   1.00
C53    C     0.12153   0.84653   0.32571   0.00000  Uiso   1.00
C54    C     0.05391   0.89472   0.29722   0.00000  Uiso   1.00
C55    C     0.93995   0.95957   0.23107   0.00000  Uiso   1.00
C56    C     0.35282   0.87259   0.40864   0.00000  Uiso   1.00
C57    C     0.46809   0.88210   0.36893   0.00000  Uiso   1.00
C58    C     0.55898   0.94657   0.36020   0.00000  Uiso   1.00
C59    C     0.73734   0.04142   0.33052   0.00000  Uiso   1.00
C60    C     0.19671   0.90391   0.47987   0.00000  Uiso   1.00
C61    C     0.14992   0.81300   0.54827   0.00000  Uiso   1.00
C62    C     0.08994   0.78277   0.63186   0.00000  Uiso   1.00
C63    C     0.05440   0.69756   0.68455   0.00000  Uiso   1.00
C64    C     0.14089   0.90628   0.41506   0.00000  Uiso   1.00
C65    C     0.07333   0.95449   0.38664   0.00000  Uiso   1.00
C66    C     0.03020   0.94782   0.32718   0.00000  Uiso   1.00
C67    C     0.32916   0.92560   0.43855   0.00000  Uiso   1.00
C68    C     0.41989   0.99007   0.42987   0.00000  Uiso   1.00
C69    C     0.53528   0.99967   0.39016   0.00000  Uiso   1.00
H70    H     0.25869   0.76506   0.40151   0.00000  Uiso   1.00
H71    H     0.15645   0.63381   0.54776   0.00000  Uiso   1.00
H72    H     0.13986   0.80551   0.30257   0.00000  Uiso   1.00
H73    H     0.48637   0.84108   0.34579   0.00000  Uiso   1.00
H74    H     0.03263   0.51165   0.72308   0.00000  Uiso   1.00
H75    H     0.99767   0.87372   0.20608   0.00000  Uiso   1.00
H76    H     0.72836   0.94872   0.29721   0.00000  Uiso   1.00
H77    H     0.17829   0.94518   0.50316   0.00000  Uiso   1.00
H78    H     0.07164   0.82380   0.65499   0.00000  Uiso   1.00
H79    H     0.05504   0.99551   0.40980   0.00000  Uiso   1.00
H80    H     0.40155   0.03107   0.45302   0.00000  Uiso   1.00
H81    H     0.96378   0.66586   0.81012   0.00000  Uiso   1.00
H82    H     0.92883   0.02793   0.29310   0.00000  Uiso   1.00
H83    H     0.65951   0.10293   0.38424   0.00000  Uiso   1.00
O84    O     0.92946   0.50566   0.86464   0.00000  Uiso   1.00
O85    O     0.88363   0.98069   0.18633   0.00000  Uiso   1.00
O86    O     0.84226   0.07908   0.30591   0.00000  Uiso   1.00
N87    N     0.03108   0.56461   0.72273   0.00000  Uiso   1.00
N88    N     0.99839   0.90311   0.23937   0.00000  Uiso   1.00
N89    N     0.68151   0.97324   0.32455   0.00000  Uiso   1.00
N90    N     0.99404   0.64759   0.76957   0.00000  Uiso   1.00
N91    N     0.96134   0.98609   0.28620   0.00000  Uiso   1.00
N92    N     0.64447   0.05622   0.37138   0.00000  Uiso   1.00
C93    C     0.42612   0.76744   0.80708   0.00000  Uiso   1.00
C94    C     0.40589   0.72006   0.76057   0.00000  Uiso   1.00
C95    C     0.45567   0.75237   0.67548   0.00000  Uiso   1.00
C96    C     0.42609   0.69897   0.64495   0.00000  Uiso   1.00
C97    C     0.40627   0.63800   0.56471   0.00000  Uiso   1.00
C98    C     0.30335   0.76025   0.85414   0.00000  Uiso   1.00
C99    C     0.26694   0.82636   0.84772   0.00000  Uiso   1.00
C100   C     0.15105   0.80679   0.89596   0.00000  Uiso   1.00
C101   C     0.97208   0.80822   0.96104   0.00000  Uiso   1.00
C102   C     0.47246   0.71763   0.87307   0.00000  Uiso   1.00
C103   C     0.57822   0.74790   0.88257   0.00000  Uiso   1.00
C104   C     0.60469   0.69244   0.94677   0.00000  Uiso   1.00
C105   C     0.68828   0.62769   0.04122   0.00000  Uiso   1.00
C106   C     0.28507   0.61513   0.90419   0.00000  Uiso   1.00
C107   C     0.32926   0.63734   0.81332   0.00000  Uiso   1.00
C108   C     0.29960   0.58386   0.78292   0.00000  Uiso   1.00
C109   C     0.34934   0.61609   0.69779   0.00000  Uiso   1.00
C110   C     0.22673   0.67753   0.90689   0.00000  Uiso   1.00
C111   C     0.11087   0.65785   0.95516   0.00000  Uiso   1.00
C112   C     0.07429   0.72391   0.94881   0.00000  Uiso   1.00
C113   C     0.39584   0.63490   0.92581   0.00000  Uiso   1.00
C114   C     0.42215   0.57939   0.99001   0.00000  Uiso   1.00
C115   C     0.52793   0.60957   0.99961   0.00000  Uiso   1.00
H116   H     0.48577   0.83184   0.76601   0.00000  Uiso   1.00
H117   H     0.51495   0.81640   0.63467   0.00000  Uiso   1.00
H118   H     0.32626   0.89037   0.80690   0.00000  Uiso   1.00
H119   H     0.63748   0.81192   0.84174   0.00000  Uiso   1.00
H120   H     0.51348   0.76280   0.51232   0.00000  Uiso   1.00
H121   H     0.11562   0.91878   0.87548   0.00000  Uiso   1.00
H122   H     0.77191   0.75335   0.94896   0.00000  Uiso   1.00
H123   H     0.22541   0.55073   0.94526   0.00000  Uiso   1.00
H124   H     0.24031   0.51985   0.82375   0.00000  Uiso   1.00
H125   H     0.05161   0.59383   0.99597   0.00000  Uiso   1.00
H126   H     0.36284   0.51538   0.03082   0.00000  Uiso   1.00
H127   H     0.29057   0.52211   0.66578   0.00000  Uiso   1.00
H128   H     0.89271   0.67809   0.02895   0.00000  Uiso   1.00
H129   H     0.54899   0.51267   0.10242   0.00000  Uiso   1.00
O130   O     0.41649   0.62722   0.50588   0.00000  Uiso   1.00
O131   O     0.89452   0.83186   0.98235   0.00000  Uiso   1.00
O132   O     0.75556   0.61483   0.07875   0.00000  Uiso   1.00
N133   N     0.45899   0.71038   0.56511   0.00000  Uiso   1.00
N134   N     0.08701   0.85622   0.90464   0.00000  Uiso   1.00
N135   N     0.70057   0.70156   0.97335   0.00000  Uiso   1.00
N136   N     0.33904   0.58087   0.64769   0.00000  Uiso   1.00
N137   N     0.96706   0.72671   0.98721   0.00000  Uiso   1.00
N138   N     0.58062   0.57205   0.05593   0.00000  Uiso   1.00
C139   C     0.33109   0.57234   0.23323   0.00000  Uiso   1.00
C140   C     0.30405   0.47867   0.28025   0.00000  Uiso   1.00
C141   C     0.28669   0.42577   0.24774   0.00000  Uiso   1.00
C142   C     0.26295   0.34206   0.30082   0.00000  Uiso   1.00
C143   C     0.22196   0.20112   0.36125   0.00000  Uiso   1.00
C144   C     0.44667   0.61229   0.24044   0.00000  Uiso   1.00
C145   C     0.54921   0.67176   0.17446   0.00000  Uiso   1.00
C146   C     0.64552   0.70055   0.19404   0.00000  Uiso   1.00
C147   C     0.82592   0.76711   0.19266   0.00000  Uiso   1.00
C148   C     0.23482   0.58865   0.28322   0.00000  Uiso   1.00
C149   C     0.15924   0.62826   0.25322   0.00000  Uiso   1.00
C150   C     0.07720   0.63715   0.30881   0.00000  Uiso   1.00
C151   C     0.92866   0.66700   0.37386   0.00000  Uiso   1.00
C152   C     0.31979   0.51773   0.38530   0.00000  Uiso   1.00
C153   C     0.29792   0.44900   0.36285   0.00000  Uiso   1.00
C154   C     0.27419   0.36535   0.41599   0.00000  Uiso   1.00
C155   C     0.25679   0.31234   0.38357   0.00000  Uiso   1.00
C156   C     0.44054   0.58263   0.32303   0.00000  Uiso   1.00
C157   C     0.53671   0.61134   0.34271   0.00000  Uiso   1.00
C158   C     0.63937   0.67083   0.27678   0.00000  Uiso   1.00
C159   C     0.22868   0.55898   0.36582   0.00000  Uiso   1.00
C160   C     0.14674   0.56782   0.42147   0.00000  Uiso   1.00
C161   C     0.07105   0.60743   0.39155   0.00000  Uiso   1.00
H162   H     0.33587   0.59544   0.16893   0.00000  Uiso   1.00
H163   H     0.29146   0.44876   0.18382   0.00000  Uiso   1.00
H164   H     0.55393   0.69471   0.11055   0.00000  Uiso   1.00
H165   H     0.16402   0.65120   0.18930   0.00000  Uiso   1.00
H166   H     0.23955   0.27305   0.23674   0.00000  Uiso   1.00
H167   H     0.79297   0.79168   0.08225   0.00000  Uiso   1.00
H168   H     0.97077   0.69994   0.24830   0.00000  Uiso   1.00
H169   H     0.31502   0.49464   0.44961   0.00000  Uiso   1.00
H170   H     0.26945   0.34241   0.47991   0.00000  Uiso   1.00
H171   H     0.53193   0.58837   0.40664   0.00000  Uiso   1.00
H172   H     0.14202   0.54486   0.48538   0.00000  Uiso   1.00
H173   H     0.22169   0.18673   0.47705   0.00000  Uiso   1.00
H174   H     0.77512   0.70538   0.32257   0.00000  Uiso   1.00
H175   H     0.95292   0.61363   0.48862   0.00000  Uiso   1.00
O176   O     0.20106   0.13158   0.37175   0.00000  Uiso   1.00
O177   O     0.92712   0.81202   0.16907   0.00000  Uiso   1.00
O178   O     0.84841   0.69164   0.38692   0.00000  Uiso   1.00
N179   N     0.24157   0.27362   0.28915   0.00000  Uiso   1.00
N180   N     0.75900   0.75851   0.14471   0.00000  Uiso   1.00
N181   N     0.99033   0.67275   0.29994   0.00000  Uiso   1.00
N182   N     0.23197   0.22718   0.41846   0.00000  Uiso   1.00
N183   N     0.74939   0.71206   0.27402   0.00000  Uiso   1.00
N184   N     0.98072   0.62631   0.42926   0.00000  Uiso   1.00
C185   C     0.75972   0.19367   0.57520   0.00000  Uiso   1.00
C186   C     0.82641   0.24001   0.48164   0.00000  Uiso   1.00
C187   C     0.86187   0.32519   0.42907   0.00000  Uiso   1.00
C188   C     0.92190   0.35554   0.34542   0.00000  Uiso   1.00
C189   C     0.02190   0.43556   0.20471   0.00000  Uiso   1.00
C190   C     0.83545   0.14673   0.61485   0.00000  Uiso   1.00
C191   C     0.87847   0.15347   0.67429   0.00000  Uiso   1.00
C192   C     0.94609   0.10528   0.70278   0.00000  Uiso   1.00
C193   C     0.06005   0.04043   0.76892   0.00000  Uiso   1.00
C194   C     0.64718   0.12741   0.59136   0.00000  Uiso   1.00
C195   C     0.53191   0.11790   0.63107   0.00000  Uiso   1.00
C196   C     0.44102   0.05343   0.63980   0.00000  Uiso   1.00
C197   C     0.26266   0.95858   0.66948   0.00000  Uiso   1.00
C198   C     0.80329   0.09609   0.52013   0.00000  Uiso   1.00
C199   C     0.85008   0.18700   0.45173   0.00000  Uiso   1.00
C200   C     0.91006   0.21723   0.36814   0.00000  Uiso   1.00
C201   C     0.94559   0.30244   0.31545   0.00000  Uiso   1.00
C202   C     0.85911   0.09372   0.58494   0.00000  Uiso   1.00
C203   C     0.92667   0.04551   0.61336   0.00000  Uiso   1.00
C204   C     0.96980   0.05218   0.67282   0.00000  Uiso   1.00
C205   C     0.67084   0.07440   0.56145   0.00000  Uiso   1.00
C206   C     0.58011   0.00993   0.57013   0.00000  Uiso   1.00
C207   C     0.46472   0.00033   0.60984   0.00000  Uiso   1.00
H208   H     0.74131   0.23494   0.59849   0.00000  Uiso   1.00
H209   H     0.84355   0.36620   0.45224   0.00000  Uiso   1.00
H210   H     0.86014   0.19449   0.69743   0.00000  Uiso   1.00
H211   H     0.51363   0.15893   0.65421   0.00000  Uiso   1.00
H212   H     0.96737   0.48835   0.27692   0.00000  Uiso   1.00
H213   H     0.00233   0.12628   0.79392   0.00000  Uiso   1.00
H214   H     0.27164   0.05128   0.70279   0.00000  Uiso   1.00
H215   H     0.82171   0.05482   0.49684   0.00000  Uiso   1.00
H216   H     0.92836   0.17620   0.34501   0.00000  Uiso   1.00
H217   H     0.94496   0.00449   0.59020   0.00000  Uiso   1.00
H218   H     0.59845   0.96893   0.54698   0.00000  Uiso   1.00
H219   H     0.03622   0.33414   0.18988   0.00000  Uiso   1.00
H220   H     0.07117   0.97207   0.70690   0.00000  Uiso   1.00
H221   H     0.34049   0.89707   0.61576   0.00000  Uiso   1.00
O222   O     0.07054   0.49434   0.13536   0.00000  Uiso   1.00
O223   O     0.11637   0.01931   0.81367   0.00000  Uiso   1.00
O224   O     0.15774   0.92092   0.69409   0.00000  Uiso   1.00
N225   N     0.96892   0.43539   0.27727   0.00000  Uiso   1.00
N226   N     0.00161   0.09689   0.76063   0.00000  Uiso   1.00
N227   N     0.31849   0.02676   0.67545   0.00000  Uiso   1.00
N228   N     0.00596   0.35241   0.23043   0.00000  Uiso   1.00
N229   N     0.03866   0.01391   0.71380   0.00000  Uiso   1.00
N230   N     0.35553   0.94378   0.62861   0.00000  Uiso   1.00
C231   C     0.57388   0.23256   0.19292   0.00000  Uiso   1.00
C232   C     0.59411   0.27994   0.23943   0.00000  Uiso   1.00
C233   C     0.54433   0.24763   0.32452   0.00000  Uiso   1.00
C234   C     0.57391   0.30104   0.35505   0.00000  Uiso   1.00
C235   C     0.59373   0.36200   0.43529   0.00000  Uiso   1.00
C236   C     0.69665   0.23975   0.14586   0.00000  Uiso   1.00
C237   C     0.73306   0.17364   0.15228   0.00000  Uiso   1.00
C238   C     0.84895   0.19322   0.10404   0.00000  Uiso   1.00
C239   C     0.02792   0.19178   0.03896   0.00000  Uiso   1.00
C240   C     0.52754   0.28237   0.12693   0.00000  Uiso   1.00
C241   C     0.42178   0.25210   0.11743   0.00000  Uiso   1.00
C242   C     0.39531   0.30756   0.05323   0.00000  Uiso   1.00
C243   C     0.31172   0.37231   0.95877   0.00000  Uiso   1.00
C244   C     0.71493   0.38487   0.09581   0.00000  Uiso   1.00
C245   C     0.67074   0.36266   0.18668   0.00000  Uiso   1.00
C246   C     0.70040   0.41614   0.21708   0.00000  Uiso   1.00
C247   C     0.65066   0.38391   0.30221   0.00000  Uiso   1.00
C248   C     0.77327   0.32247   0.09311   0.00000  Uiso   1.00
C249   C     0.88913   0.34215   0.04484   0.00000  Uiso   1.00
C250   C     0.92571   0.27609   0.05119   0.00000  Uiso   1.00
C251   C     0.60416   0.36510   0.07419   0.00000  Uiso   1.00
C252   C     0.57785   0.42061   0.00999   0.00000  Uiso   1.00
C253   C     0.47207   0.39043   0.00039   0.00000  Uiso   1.00
H254   H     0.51423   0.16816   0.23399   0.00000  Uiso   1.00
H255   H     0.48505   0.18360   0.36533   0.00000  Uiso   1.00
H256   H     0.67374   0.10963   0.19310   0.00000  Uiso   1.00
H257   H     0.36252   0.18808   0.15826   0.00000  Uiso   1.00
H258   H     0.48652   0.23720   0.48768   0.00000  Uiso   1.00
H259   H     0.88438   0.08122   0.12452   0.00000  Uiso   1.00
H260   H     0.22809   0.24665   0.05104   0.00000  Uiso   1.00
H261   H     0.77459   0.44927   0.05474   0.00000  Uiso   1.00
H262   H     0.75969   0.48015   0.17625   0.00000  Uiso   1.00
H263   H     0.94839   0.40617   0.00402   0.00000  Uiso   1.00
H264   H     0.63716   0.48462   0.96918   0.00000  Uiso   1.00
H265   H     0.70943   0.47789   0.33422   0.00000  Uiso   1.00
H266   H     0.10729   0.32191   0.97105   0.00000  Uiso   1.00
H267   H     0.45101   0.48734   0.89758   0.00000  Uiso   1.00
O268   O     0.58351   0.37278   0.49412   0.00000  Uiso   1.00
O269   O     0.10548   0.16814   0.01765   0.00000  Uiso   1.00
O270   O     0.24444   0.38517   0.92125   0.00000  Uiso   1.00
N271   N     0.54101   0.28962   0.43489   0.00000  Uiso   1.00
N272   N     0.91299   0.14378   0.09536   0.00000  Uiso   1.00
N273   N     0.29943   0.29844   0.02665   0.00000  Uiso   1.00
N274   N     0.66096   0.41913   0.35231   0.00000  Uiso   1.00
N275   N     0.03294   0.27330   0.01278   0.00000  Uiso   1.00
N276   N     0.41938   0.42795   0.94407   0.00000  Uiso   1.00
