data_job_03336
_audit_creation_date              2018-12-19
_audit_creation_method            'Materials Studio'
_symmetry_space_group_name_H-M    'P1'
_symmetry_Int_Tables_number       1
_symmetry_cell_setting            triclinic
loop_
_symmetry_equiv_pos_as_xyz
  x,y,z
_cell_length_a                    13.9764
_cell_length_b                    19.9878
_cell_length_c                    18.7759
_cell_angle_alpha                 90.0000
_cell_angle_beta                  90.0000
_cell_angle_gamma                 90.0000
loop_
_atom_site_label
_atom_site_type_symbol
_atom_site_fract_x
_atom_site_fract_y
_atom_site_fract_z
_atom_site_U_iso_or_equiv
_atom_site_adp_type
_atom_site_occupancy
C1     C     0.35451   0.64349   0.19573   0.00000  Uiso   1.00
C2     C     0.38548   0.71611   0.18640   0.00000  Uiso   1.00
C3     C     0.46535   0.73782   0.14906   0.00000  Uiso   1.00
C4     C     0.48134   0.80635   0.14674   0.00000  Uiso   1.00
C5     C     0.53884   0.91225   0.12714   0.00000  Uiso   1.00
C6     C     0.34787   0.63182   0.27584   0.00000  Uiso   1.00
C7     C     0.39612   0.58265   0.31371   0.00000  Uiso   1.00
C8     C     0.38044   0.58020   0.38668   0.00000  Uiso   1.00
C9     C     0.37951   0.55521   0.50593   0.00000  Uiso   1.00
C10    C     0.25230   0.63946   0.16764   0.00000  Uiso   1.00
C11    C     0.22019   0.59670   0.11453   0.00000  Uiso   1.00
C12    C     0.12404   0.60068   0.09642   0.00000  Uiso   1.00
C13    C     0.97472   0.58755   0.04766   0.00000  Uiso   1.00
C14    C     0.24086   0.72657   0.25800   0.00000  Uiso   1.00
C15    C     0.32375   0.76124   0.22022   0.00000  Uiso   1.00
C16    C     0.33962   0.82975   0.21796   0.00000  Uiso   1.00
C17    C     0.41950   0.85156   0.18062   0.00000  Uiso   1.00
C18    C     0.28615   0.67694   0.30967   0.00000  Uiso   1.00
C19    C     0.27039   0.67457   0.38260   0.00000  Uiso   1.00
C20    C     0.31861   0.62541   0.42057   0.00000  Uiso   1.00
C21    C     0.19058   0.68459   0.20146   0.00000  Uiso   1.00
C22    C     0.09446   0.68863   0.18343   0.00000  Uiso   1.00
C23    C     0.06220   0.64589   0.13030   0.00000  Uiso   1.00
H24    H     0.40257   0.60835   0.16940   0.00000  Uiso   1.00
H25    H     0.51311   0.70288   0.12290   0.00000  Uiso   1.00
H26    H     0.44388   0.54773   0.28752   0.00000  Uiso   1.00
H27    H     0.26797   0.56179   0.08837   0.00000  Uiso   1.00
H28    H     0.60846   0.82759   0.08628   0.00000  Uiso   1.00
H29    H     0.46246   0.50042   0.43338   0.00000  Uiso   1.00
H30    H     0.09153   0.53006   0.01344   0.00000  Uiso   1.00
H31    H     0.19281   0.76171   0.28434   0.00000  Uiso   1.00
H32    H     0.29184   0.86466   0.24414   0.00000  Uiso   1.00
H33    H     0.22261   0.70950   0.40876   0.00000  Uiso   1.00
H34    H     0.04671   0.72356   0.20961   0.00000  Uiso   1.00
H35    H     0.42887   0.95890   0.18468   0.00000  Uiso   1.00
H36    H     0.28288   0.63172   0.53178   0.00000  Uiso   1.00
H37    H     0.91195   0.66137   0.11185   0.00000  Uiso   1.00
O38    O     0.58761   0.95820   0.10699   0.00000  Uiso   1.00
O39    O     0.39606   0.52896   0.56236   0.00000  Uiso   1.00
O40    O     0.90942   0.56785   0.01141   0.00000  Uiso   1.00
N41    N     0.55259   0.84437   0.11495   0.00000  Uiso   1.00
N42    N     0.41611   0.53849   0.43946   0.00000  Uiso   1.00
N43    N     0.06931   0.56619   0.04687   0.00000  Uiso   1.00
N44    N     0.45596   0.91502   0.16789   0.00000  Uiso   1.00
N45    N     0.31947   0.60914   0.49241   0.00000  Uiso   1.00
N46    N     0.97268   0.63684   0.09982   0.00000  Uiso   1.00
C47    C     0.14549   0.85651   0.69573   0.00000  Uiso   1.00
C48    C     0.11452   0.78389   0.68640   0.00000  Uiso   1.00
C49    C     0.03465   0.76218   0.64906   0.00000  Uiso   1.00
C50    C     0.01866   0.69365   0.64674   0.00000  Uiso   1.00
C51    C     0.96116   0.58775   0.62714   0.00000  Uiso   1.00
C52    C     0.15213   0.86818   0.77584   0.00000  Uiso   1.00
C53    C     0.10388   0.91735   0.81371   0.00000  Uiso   1.00
C54    C     0.11956   0.91980   0.88668   0.00000  Uiso   1.00
C55    C     0.12049   0.94479   0.00593   0.00000  Uiso   1.00
C56    C     0.24770   0.86054   0.66764   0.00000  Uiso   1.00
C57    C     0.27981   0.90330   0.61453   0.00000  Uiso   1.00
C58    C     0.37596   0.89932   0.59642   0.00000  Uiso   1.00
C59    C     0.52528   0.91245   0.54766   0.00000  Uiso   1.00
C60    C     0.25914   0.77343   0.75800   0.00000  Uiso   1.00
C61    C     0.17625   0.73876   0.72022   0.00000  Uiso   1.00
C62    C     0.16038   0.67025   0.71796   0.00000  Uiso   1.00
C63    C     0.08050   0.64844   0.68062   0.00000  Uiso   1.00
C64    C     0.21385   0.82306   0.80967   0.00000  Uiso   1.00
C65    C     0.22961   0.82543   0.88260   0.00000  Uiso   1.00
C66    C     0.18139   0.87459   0.92057   0.00000  Uiso   1.00
C67    C     0.30942   0.81541   0.70146   0.00000  Uiso   1.00
C68    C     0.40554   0.81137   0.68343   0.00000  Uiso   1.00
C69    C     0.43780   0.85411   0.63030   0.00000  Uiso   1.00
H70    H     0.09743   0.89165   0.66940   0.00000  Uiso   1.00
H71    H     0.98689   0.79712   0.62290   0.00000  Uiso   1.00
H72    H     0.05612   0.95227   0.78752   0.00000  Uiso   1.00
H73    H     0.23203   0.93821   0.58837   0.00000  Uiso   1.00
H74    H     0.89154   0.67241   0.58628   0.00000  Uiso   1.00
H75    H     0.03754   0.99958   0.93338   0.00000  Uiso   1.00
H76    H     0.40847   0.96994   0.51344   0.00000  Uiso   1.00
H77    H     0.30719   0.73829   0.78434   0.00000  Uiso   1.00
H78    H     0.20816   0.63534   0.74414   0.00000  Uiso   1.00
H79    H     0.27739   0.79050   0.90876   0.00000  Uiso   1.00
H80    H     0.45329   0.77644   0.70961   0.00000  Uiso   1.00
H81    H     0.07113   0.54110   0.68468   0.00000  Uiso   1.00
H82    H     0.21712   0.86828   0.03178   0.00000  Uiso   1.00
H83    H     0.58805   0.83863   0.61185   0.00000  Uiso   1.00
O84    O     0.91239   0.54180   0.60699   0.00000  Uiso   1.00
O85    O     0.10394   0.97104   0.06236   0.00000  Uiso   1.00
O86    O     0.59058   0.93215   0.51141   0.00000  Uiso   1.00
N87    N     0.94741   0.65563   0.61495   0.00000  Uiso   1.00
N88    N     0.08389   0.96151   0.93946   0.00000  Uiso   1.00
N89    N     0.43069   0.93381   0.54687   0.00000  Uiso   1.00
N90    N     0.04404   0.58498   0.66789   0.00000  Uiso   1.00
N91    N     0.18053   0.89086   0.99241   0.00000  Uiso   1.00
N92    N     0.52732   0.86316   0.59982   0.00000  Uiso   1.00
C93    C     0.64549   0.64349   0.30427   0.00000  Uiso   1.00
C94    C     0.61452   0.71611   0.31360   0.00000  Uiso   1.00
C95    C     0.53465   0.73782   0.35094   0.00000  Uiso   1.00
C96    C     0.51866   0.80635   0.35326   0.00000  Uiso   1.00
C97    C     0.46116   0.91225   0.37286   0.00000  Uiso   1.00
C98    C     0.65213   0.63182   0.22416   0.00000  Uiso   1.00
C99    C     0.60388   0.58265   0.18629   0.00000  Uiso   1.00
C100   C     0.61956   0.58020   0.11332   0.00000  Uiso   1.00
C101   C     0.62049   0.55521   0.99407   0.00000  Uiso   1.00
C102   C     0.74770   0.63946   0.33236   0.00000  Uiso   1.00
C103   C     0.77981   0.59670   0.38547   0.00000  Uiso   1.00
C104   C     0.87596   0.60068   0.40358   0.00000  Uiso   1.00
C105   C     0.02528   0.58755   0.45234   0.00000  Uiso   1.00
C106   C     0.75914   0.72657   0.24200   0.00000  Uiso   1.00
C107   C     0.67625   0.76124   0.27978   0.00000  Uiso   1.00
C108   C     0.66038   0.82975   0.28204   0.00000  Uiso   1.00
C109   C     0.58050   0.85156   0.31938   0.00000  Uiso   1.00
C110   C     0.71385   0.67694   0.19033   0.00000  Uiso   1.00
C111   C     0.72961   0.67457   0.11740   0.00000  Uiso   1.00
C112   C     0.68139   0.62541   0.07943   0.00000  Uiso   1.00
C113   C     0.80942   0.68459   0.29854   0.00000  Uiso   1.00
C114   C     0.90554   0.68863   0.31657   0.00000  Uiso   1.00
C115   C     0.93780   0.64589   0.36970   0.00000  Uiso   1.00
H116   H     0.59743   0.60835   0.33060   0.00000  Uiso   1.00
H117   H     0.48689   0.70288   0.37710   0.00000  Uiso   1.00
H118   H     0.55612   0.54773   0.21248   0.00000  Uiso   1.00
H119   H     0.73203   0.56179   0.41163   0.00000  Uiso   1.00
H120   H     0.39154   0.82759   0.41372   0.00000  Uiso   1.00
H121   H     0.53754   0.50042   0.06662   0.00000  Uiso   1.00
H122   H     0.90847   0.53006   0.48656   0.00000  Uiso   1.00
H123   H     0.80719   0.76171   0.21566   0.00000  Uiso   1.00
H124   H     0.70816   0.86466   0.25586   0.00000  Uiso   1.00
H125   H     0.77739   0.70950   0.09124   0.00000  Uiso   1.00
H126   H     0.95329   0.72356   0.29039   0.00000  Uiso   1.00
H127   H     0.57113   0.95890   0.31532   0.00000  Uiso   1.00
H128   H     0.71712   0.63172   0.96822   0.00000  Uiso   1.00
H129   H     0.08805   0.66137   0.38815   0.00000  Uiso   1.00
O130   O     0.41239   0.95820   0.39301   0.00000  Uiso   1.00
O131   O     0.60394   0.52896   0.93764   0.00000  Uiso   1.00
O132   O     0.09058   0.56785   0.48859   0.00000  Uiso   1.00
N133   N     0.44741   0.84437   0.38505   0.00000  Uiso   1.00
N134   N     0.58389   0.53849   0.06054   0.00000  Uiso   1.00
N135   N     0.93069   0.56619   0.45313   0.00000  Uiso   1.00
N136   N     0.54404   0.91502   0.33211   0.00000  Uiso   1.00
N137   N     0.68053   0.60914   0.00759   0.00000  Uiso   1.00
N138   N     0.02732   0.63684   0.40018   0.00000  Uiso   1.00
C139   C     0.85451   0.85651   0.80427   0.00000  Uiso   1.00
C140   C     0.88548   0.78389   0.81360   0.00000  Uiso   1.00
C141   C     0.96535   0.76218   0.85094   0.00000  Uiso   1.00
C142   C     0.98134   0.69365   0.85326   0.00000  Uiso   1.00
C143   C     0.03884   0.58775   0.87286   0.00000  Uiso   1.00
C144   C     0.84787   0.86818   0.72416   0.00000  Uiso   1.00
C145   C     0.89612   0.91735   0.68629   0.00000  Uiso   1.00
C146   C     0.88044   0.91980   0.61332   0.00000  Uiso   1.00
C147   C     0.87951   0.94479   0.49407   0.00000  Uiso   1.00
C148   C     0.75230   0.86054   0.83236   0.00000  Uiso   1.00
C149   C     0.72019   0.90330   0.88547   0.00000  Uiso   1.00
C150   C     0.62404   0.89932   0.90358   0.00000  Uiso   1.00
C151   C     0.47472   0.91245   0.95234   0.00000  Uiso   1.00
C152   C     0.74086   0.77343   0.74200   0.00000  Uiso   1.00
C153   C     0.82375   0.73876   0.77978   0.00000  Uiso   1.00
C154   C     0.83962   0.67025   0.78204   0.00000  Uiso   1.00
C155   C     0.91950   0.64844   0.81938   0.00000  Uiso   1.00
C156   C     0.78615   0.82306   0.69033   0.00000  Uiso   1.00
C157   C     0.77039   0.82543   0.61740   0.00000  Uiso   1.00
C158   C     0.81861   0.87459   0.57943   0.00000  Uiso   1.00
C159   C     0.69058   0.81541   0.79854   0.00000  Uiso   1.00
C160   C     0.59446   0.81137   0.81657   0.00000  Uiso   1.00
C161   C     0.56220   0.85411   0.86970   0.00000  Uiso   1.00
H162   H     0.90257   0.89165   0.83060   0.00000  Uiso   1.00
H163   H     0.01311   0.79712   0.87710   0.00000  Uiso   1.00
H164   H     0.94388   0.95227   0.71248   0.00000  Uiso   1.00
H165   H     0.76797   0.93821   0.91163   0.00000  Uiso   1.00
H166   H     0.10846   0.67241   0.91372   0.00000  Uiso   1.00
H167   H     0.96246   0.99958   0.56662   0.00000  Uiso   1.00
H168   H     0.59153   0.96994   0.98656   0.00000  Uiso   1.00
H169   H     0.69281   0.73829   0.71566   0.00000  Uiso   1.00
H170   H     0.79184   0.63534   0.75586   0.00000  Uiso   1.00
H171   H     0.72261   0.79050   0.59124   0.00000  Uiso   1.00
H172   H     0.54671   0.77644   0.79039   0.00000  Uiso   1.00
H173   H     0.92887   0.54110   0.81532   0.00000  Uiso   1.00
H174   H     0.78288   0.86828   0.46822   0.00000  Uiso   1.00
H175   H     0.41195   0.83863   0.88815   0.00000  Uiso   1.00
O176   O     0.08761   0.54180   0.89301   0.00000  Uiso   1.00
O177   O     0.89606   0.97104   0.43764   0.00000  Uiso   1.00
O178   O     0.40942   0.93215   0.98859   0.00000  Uiso   1.00
N179   N     0.05259   0.65563   0.88505   0.00000  Uiso   1.00
N180   N     0.91611   0.96151   0.56054   0.00000  Uiso   1.00
N181   N     0.56931   0.93381   0.95313   0.00000  Uiso   1.00
N182   N     0.95596   0.58498   0.83211   0.00000  Uiso   1.00
N183   N     0.81947   0.89086   0.50759   0.00000  Uiso   1.00
N184   N     0.47268   0.86316   0.90018   0.00000  Uiso   1.00
C185   C     0.64549   0.35651   0.80427   0.00000  Uiso   1.00
C186   C     0.61452   0.28389   0.81360   0.00000  Uiso   1.00
C187   C     0.53465   0.26218   0.85094   0.00000  Uiso   1.00
C188   C     0.51866   0.19365   0.85326   0.00000  Uiso   1.00
C189   C     0.46116   0.08775   0.87286   0.00000  Uiso   1.00
C190   C     0.65213   0.36818   0.72416   0.00000  Uiso   1.00
C191   C     0.60388   0.41735   0.68629   0.00000  Uiso   1.00
C192   C     0.61956   0.41980   0.61332   0.00000  Uiso   1.00
C193   C     0.62049   0.44479   0.49407   0.00000  Uiso   1.00
C194   C     0.74770   0.36054   0.83236   0.00000  Uiso   1.00
C195   C     0.77981   0.40330   0.88547   0.00000  Uiso   1.00
C196   C     0.87596   0.39932   0.90358   0.00000  Uiso   1.00
C197   C     0.02528   0.41245   0.95234   0.00000  Uiso   1.00
C198   C     0.75914   0.27343   0.74200   0.00000  Uiso   1.00
C199   C     0.67625   0.23876   0.77978   0.00000  Uiso   1.00
C200   C     0.66038   0.17025   0.78204   0.00000  Uiso   1.00
C201   C     0.58050   0.14844   0.81938   0.00000  Uiso   1.00
C202   C     0.71385   0.32306   0.69033   0.00000  Uiso   1.00
C203   C     0.72961   0.32543   0.61740   0.00000  Uiso   1.00
C204   C     0.68139   0.37459   0.57943   0.00000  Uiso   1.00
C205   C     0.80942   0.31541   0.79854   0.00000  Uiso   1.00
C206   C     0.90554   0.31137   0.81657   0.00000  Uiso   1.00
C207   C     0.93780   0.35411   0.86970   0.00000  Uiso   1.00
H208   H     0.59743   0.39165   0.83060   0.00000  Uiso   1.00
H209   H     0.48689   0.29712   0.87710   0.00000  Uiso   1.00
H210   H     0.55612   0.45227   0.71248   0.00000  Uiso   1.00
H211   H     0.73203   0.43821   0.91163   0.00000  Uiso   1.00
H212   H     0.39154   0.17241   0.91372   0.00000  Uiso   1.00
H213   H     0.53754   0.49958   0.56662   0.00000  Uiso   1.00
H214   H     0.90847   0.46994   0.98656   0.00000  Uiso   1.00
H215   H     0.80719   0.23829   0.71566   0.00000  Uiso   1.00
H216   H     0.70816   0.13534   0.75586   0.00000  Uiso   1.00
H217   H     0.77739   0.29050   0.59124   0.00000  Uiso   1.00
H218   H     0.95329   0.27644   0.79039   0.00000  Uiso   1.00
H219   H     0.57113   0.04110   0.81532   0.00000  Uiso   1.00
H220   H     0.71712   0.36828   0.46822   0.00000  Uiso   1.00
H221   H     0.08805   0.33863   0.88815   0.00000  Uiso   1.00
O222   O     0.41239   0.04180   0.89301   0.00000  Uiso   1.00
O223   O     0.60394   0.47104   0.43764   0.00000  Uiso   1.00
O224   O     0.09058   0.43215   0.98859   0.00000  Uiso   1.00
N225   N     0.44741   0.15563   0.88505   0.00000  Uiso   1.00
N226   N     0.58389   0.46151   0.56054   0.00000  Uiso   1.00
N227   N     0.93069   0.43381   0.95313   0.00000  Uiso   1.00
N228   N     0.54404   0.08498   0.83211   0.00000  Uiso   1.00
N229   N     0.68053   0.39086   0.50759   0.00000  Uiso   1.00
N230   N     0.02732   0.36316   0.90018   0.00000  Uiso   1.00
C231   C     0.85451   0.14349   0.30427   0.00000  Uiso   1.00
C232   C     0.88548   0.21611   0.31360   0.00000  Uiso   1.00
C233   C     0.96535   0.23782   0.35094   0.00000  Uiso   1.00
C234   C     0.98134   0.30635   0.35326   0.00000  Uiso   1.00
C235   C     0.03884   0.41225   0.37286   0.00000  Uiso   1.00
C236   C     0.84787   0.13182   0.22416   0.00000  Uiso   1.00
C237   C     0.89612   0.08265   0.18629   0.00000  Uiso   1.00
C238   C     0.88044   0.08020   0.11332   0.00000  Uiso   1.00
C239   C     0.87951   0.05521   0.99407   0.00000  Uiso   1.00
C240   C     0.75230   0.13946   0.33236   0.00000  Uiso   1.00
C241   C     0.72019   0.09670   0.38547   0.00000  Uiso   1.00
C242   C     0.62404   0.10068   0.40358   0.00000  Uiso   1.00
C243   C     0.47472   0.08755   0.45234   0.00000  Uiso   1.00
C244   C     0.74086   0.22657   0.24200   0.00000  Uiso   1.00
C245   C     0.82375   0.26124   0.27978   0.00000  Uiso   1.00
C246   C     0.83962   0.32975   0.28204   0.00000  Uiso   1.00
C247   C     0.91950   0.35156   0.31938   0.00000  Uiso   1.00
C248   C     0.78615   0.17694   0.19033   0.00000  Uiso   1.00
C249   C     0.77039   0.17457   0.11740   0.00000  Uiso   1.00
C250   C     0.81861   0.12541   0.07943   0.00000  Uiso   1.00
C251   C     0.69058   0.18459   0.29854   0.00000  Uiso   1.00
C252   C     0.59446   0.18863   0.31657   0.00000  Uiso   1.00
C253   C     0.56220   0.14589   0.36970   0.00000  Uiso   1.00
H254   H     0.90257   0.10835   0.33060   0.00000  Uiso   1.00
H255   H     0.01311   0.20288   0.37710   0.00000  Uiso   1.00
H256   H     0.94388   0.04773   0.21248   0.00000  Uiso   1.00
H257   H     0.76797   0.06179   0.41163   0.00000  Uiso   1.00
H258   H     0.10846   0.32759   0.41372   0.00000  Uiso   1.00
H259   H     0.96246   0.00042   0.06662   0.00000  Uiso   1.00
H260   H     0.59153   0.03006   0.48656   0.00000  Uiso   1.00
H261   H     0.69281   0.26171   0.21566   0.00000  Uiso   1.00
H262   H     0.79184   0.36466   0.25586   0.00000  Uiso   1.00
H263   H     0.72261   0.20950   0.09124   0.00000  Uiso   1.00
H264   H     0.54671   0.22356   0.29039   0.00000  Uiso   1.00
H265   H     0.92887   0.45890   0.31532   0.00000  Uiso   1.00
H266   H     0.78288   0.13172   0.96822   0.00000  Uiso   1.00
H267   H     0.41195   0.16137   0.38815   0.00000  Uiso   1.00
O268   O     0.08761   0.45820   0.39301   0.00000  Uiso   1.00
O269   O     0.89606   0.02896   0.93764   0.00000  Uiso   1.00
O270   O     0.40942   0.06785   0.48859   0.00000  Uiso   1.00
N271   N     0.05259   0.34437   0.38505   0.00000  Uiso   1.00
N272   N     0.91611   0.03849   0.06054   0.00000  Uiso   1.00
N273   N     0.56931   0.06619   0.45313   0.00000  Uiso   1.00
N274   N     0.95596   0.41502   0.33211   0.00000  Uiso   1.00
N275   N     0.81947   0.10914   0.00759   0.00000  Uiso   1.00
N276   N     0.47268   0.13684   0.40018   0.00000  Uiso   1.00
C277   C     0.35451   0.35651   0.69573   0.00000  Uiso   1.00
C278   C     0.38548   0.28389   0.68640   0.00000  Uiso   1.00
C279   C     0.46535   0.26218   0.64906   0.00000  Uiso   1.00
C280   C     0.48134   0.19365   0.64674   0.00000  Uiso   1.00
C281   C     0.53884   0.08775   0.62714   0.00000  Uiso   1.00
C282   C     0.34787   0.36818   0.77584   0.00000  Uiso   1.00
C283   C     0.39612   0.41735   0.81371   0.00000  Uiso   1.00
C284   C     0.38044   0.41980   0.88668   0.00000  Uiso   1.00
C285   C     0.37951   0.44479   0.00593   0.00000  Uiso   1.00
C286   C     0.25230   0.36054   0.66764   0.00000  Uiso   1.00
C287   C     0.22019   0.40330   0.61453   0.00000  Uiso   1.00
C288   C     0.12404   0.39932   0.59642   0.00000  Uiso   1.00
C289   C     0.97472   0.41245   0.54766   0.00000  Uiso   1.00
C290   C     0.24086   0.27343   0.75800   0.00000  Uiso   1.00
C291   C     0.32375   0.23876   0.72022   0.00000  Uiso   1.00
C292   C     0.33962   0.17025   0.71796   0.00000  Uiso   1.00
C293   C     0.41950   0.14844   0.68062   0.00000  Uiso   1.00
C294   C     0.28615   0.32306   0.80967   0.00000  Uiso   1.00
C295   C     0.27039   0.32543   0.88260   0.00000  Uiso   1.00
C296   C     0.31861   0.37459   0.92057   0.00000  Uiso   1.00
C297   C     0.19058   0.31541   0.70146   0.00000  Uiso   1.00
C298   C     0.09446   0.31137   0.68343   0.00000  Uiso   1.00
C299   C     0.06220   0.35411   0.63030   0.00000  Uiso   1.00
H300   H     0.40257   0.39165   0.66940   0.00000  Uiso   1.00
H301   H     0.51311   0.29712   0.62290   0.00000  Uiso   1.00
H302   H     0.44388   0.45227   0.78752   0.00000  Uiso   1.00
H303   H     0.26797   0.43821   0.58837   0.00000  Uiso   1.00
H304   H     0.60846   0.17241   0.58628   0.00000  Uiso   1.00
H305   H     0.46246   0.49958   0.93338   0.00000  Uiso   1.00
H306   H     0.09153   0.46994   0.51344   0.00000  Uiso   1.00
H307   H     0.19281   0.23829   0.78434   0.00000  Uiso   1.00
H308   H     0.29184   0.13534   0.74414   0.00000  Uiso   1.00
H309   H     0.22261   0.29050   0.90876   0.00000  Uiso   1.00
H310   H     0.04671   0.27644   0.70961   0.00000  Uiso   1.00
H311   H     0.42887   0.04110   0.68468   0.00000  Uiso   1.00
H312   H     0.28288   0.36828   0.03178   0.00000  Uiso   1.00
H313   H     0.91195   0.33863   0.61185   0.00000  Uiso   1.00
O314   O     0.58761   0.04180   0.60699   0.00000  Uiso   1.00
O315   O     0.39606   0.47104   0.06236   0.00000  Uiso   1.00
O316   O     0.90942   0.43215   0.51141   0.00000  Uiso   1.00
N317   N     0.55259   0.15563   0.61495   0.00000  Uiso   1.00
N318   N     0.41611   0.46151   0.93946   0.00000  Uiso   1.00
N319   N     0.06931   0.43381   0.54687   0.00000  Uiso   1.00
N320   N     0.45596   0.08498   0.66789   0.00000  Uiso   1.00
N321   N     0.31947   0.39086   0.99241   0.00000  Uiso   1.00
N322   N     0.97268   0.36316   0.59982   0.00000  Uiso   1.00
C323   C     0.14549   0.14349   0.19573   0.00000  Uiso   1.00
C324   C     0.11452   0.21611   0.18640   0.00000  Uiso   1.00
C325   C     0.03465   0.23782   0.14906   0.00000  Uiso   1.00
C326   C     0.01866   0.30635   0.14674   0.00000  Uiso   1.00
C327   C     0.96116   0.41225   0.12714   0.00000  Uiso   1.00
C328   C     0.15213   0.13182   0.27584   0.00000  Uiso   1.00
C329   C     0.10388   0.08265   0.31371   0.00000  Uiso   1.00
C330   C     0.11956   0.08020   0.38668   0.00000  Uiso   1.00
C331   C     0.12049   0.05521   0.50593   0.00000  Uiso   1.00
C332   C     0.24770   0.13946   0.16764   0.00000  Uiso   1.00
C333   C     0.27981   0.09670   0.11453   0.00000  Uiso   1.00
C334   C     0.37596   0.10068   0.09642   0.00000  Uiso   1.00
C335   C     0.52528   0.08755   0.04766   0.00000  Uiso   1.00
C336   C     0.25914   0.22657   0.25800   0.00000  Uiso   1.00
C337   C     0.17625   0.26124   0.22022   0.00000  Uiso   1.00
C338   C     0.16038   0.32975   0.21796   0.00000  Uiso   1.00
C339   C     0.08050   0.35156   0.18062   0.00000  Uiso   1.00
C340   C     0.21385   0.17694   0.30967   0.00000  Uiso   1.00
C341   C     0.22961   0.17457   0.38260   0.00000  Uiso   1.00
C342   C     0.18139   0.12541   0.42057   0.00000  Uiso   1.00
C343   C     0.30942   0.18459   0.20146   0.00000  Uiso   1.00
C344   C     0.40554   0.18863   0.18343   0.00000  Uiso   1.00
C345   C     0.43780   0.14589   0.13030   0.00000  Uiso   1.00
H346   H     0.09743   0.10835   0.16940   0.00000  Uiso   1.00
H347   H     0.98689   0.20288   0.12290   0.00000  Uiso   1.00
H348   H     0.05612   0.04773   0.28752   0.00000  Uiso   1.00
H349   H     0.23203   0.06179   0.08837   0.00000  Uiso   1.00
H350   H     0.89154   0.32759   0.08628   0.00000  Uiso   1.00
H351   H     0.03754   0.00042   0.43338   0.00000  Uiso   1.00
H352   H     0.40847   0.03006   0.01344   0.00000  Uiso   1.00
H353   H     0.30719   0.26171   0.28434   0.00000  Uiso   1.00
H354   H     0.20816   0.36466   0.24414   0.00000  Uiso   1.00
H355   H     0.27739   0.20950   0.40876   0.00000  Uiso   1.00
H356   H     0.45329   0.22356   0.20961   0.00000  Uiso   1.00
H357   H     0.07113   0.45890   0.18468   0.00000  Uiso   1.00
H358   H     0.21712   0.13172   0.53178   0.00000  Uiso   1.00
H359   H     0.58805   0.16137   0.11185   0.00000  Uiso   1.00
O360   O     0.91239   0.45820   0.10699   0.00000  Uiso   1.00
O361   O     0.10394   0.02896   0.56236   0.00000  Uiso   1.00
O362   O     0.59058   0.06785   0.01141   0.00000  Uiso   1.00
N363   N     0.94741   0.34437   0.11495   0.00000  Uiso   1.00
N364   N     0.08389   0.03849   0.43946   0.00000  Uiso   1.00
N365   N     0.43069   0.06619   0.04687   0.00000  Uiso   1.00
N366   N     0.04404   0.41502   0.16789   0.00000  Uiso   1.00
N367   N     0.18053   0.10914   0.49241   0.00000  Uiso   1.00
N368   N     0.52732   0.13684   0.09982   0.00000  Uiso   1.00
