data_job_05668
_audit_creation_date              2018-12-19
_audit_creation_method            'Materials Studio'
_symmetry_space_group_name_H-M    'P1'
_symmetry_Int_Tables_number       1
_symmetry_cell_setting            triclinic
loop_
_symmetry_equiv_pos_as_xyz
  x,y,z
_cell_length_a                    21.2180
_cell_length_b                    21.2180
_cell_length_c                    12.4233
_cell_angle_alpha                 90.0000
_cell_angle_beta                  90.0000
_cell_angle_gamma                 90.0000
loop_
_atom_site_label
_atom_site_type_symbol
_atom_site_fract_x
_atom_site_fract_y
_atom_site_fract_z
_atom_site_U_iso_or_equiv
_atom_site_adp_type
_atom_site_occupancy
C1     C     0.40736   0.78894   0.71204   0.00000  Uiso   1.00
C2     C     0.38368   0.72244   0.68897   0.00000  Uiso   1.00
C3     C     0.41902   0.66761   0.69706   0.00000  Uiso   1.00
C4     C     0.38874   0.61142   0.67246   0.00000  Uiso   1.00
C5     C     0.36163   0.50836   0.64137   0.00000  Uiso   1.00
C6     C     0.39512   0.82689   0.60992   0.00000  Uiso   1.00
C7     C     0.44009   0.85990   0.55157   0.00000  Uiso   1.00
C8     C     0.41943   0.89165   0.46044   0.00000  Uiso   1.00
C9     C     0.41008   0.95079   0.30669   0.00000  Uiso   1.00
C10    C     0.36333   0.81591   0.79742   0.00000  Uiso   1.00
C11    C     0.38157   0.83970   0.89671   0.00000  Uiso   1.00
C12    C     0.33415   0.86223   0.96343   0.00000  Uiso   1.00
C13    C     0.27543   0.90432   0.10080   0.00000  Uiso   1.00
C14    C     0.29072   0.78665   0.65396   0.00000  Uiso   1.00
C15    C     0.32033   0.72120   0.65742   0.00000  Uiso   1.00
C16    C     0.28998   0.66508   0.63280   0.00000  Uiso   1.00
C17    C     0.32527   0.61018   0.64086   0.00000  Uiso   1.00
C18    C     0.33177   0.82565   0.57838   0.00000  Uiso   1.00
C19    C     0.31105   0.85737   0.48731   0.00000  Uiso   1.00
C20    C     0.35597   0.89041   0.42884   0.00000  Uiso   1.00
C21    C     0.29998   0.81467   0.76588   0.00000  Uiso   1.00
C22    C     0.25252   0.83717   0.83245   0.00000  Uiso   1.00
C23    C     0.27068   0.86099   0.93183   0.00000  Uiso   1.00
H24    H     0.45668   0.78991   0.73660   0.00000  Uiso   1.00
H25    H     0.46805   0.66859   0.72147   0.00000  Uiso   1.00
H26    H     0.48911   0.86085   0.57601   0.00000  Uiso   1.00
H27    H     0.43060   0.84066   0.92110   0.00000  Uiso   1.00
H28    H     0.45273   0.53354   0.69074   0.00000  Uiso   1.00
H29    H     0.49713   0.93896   0.38406   0.00000  Uiso   1.00
H30    H     0.37375   0.89638   0.11174   0.00000  Uiso   1.00
H31    H     0.24139   0.78569   0.62940   0.00000  Uiso   1.00
H32    H     0.24095   0.66413   0.60839   0.00000  Uiso   1.00
H33    H     0.26202   0.85640   0.46293   0.00000  Uiso   1.00
H34    H     0.20350   0.83620   0.80802   0.00000  Uiso   1.00
H35    H     0.26841   0.52993   0.59896   0.00000  Uiso   1.00
H36    H     0.31281   0.93535   0.29228   0.00000  Uiso   1.00
H37    H     0.18943   0.89276   0.01996   0.00000  Uiso   1.00
O38    O     0.36417   0.45185   0.63292   0.00000  Uiso   1.00
O39    O     0.42242   0.98375   0.23059   0.00000  Uiso   1.00
O40    O     0.26055   0.92788   0.18529   0.00000  Uiso   1.00
N41    N     0.40941   0.54937   0.67204   0.00000  Uiso   1.00
N42    N     0.45092   0.92840   0.38531   0.00000  Uiso   1.00
N43    N     0.33557   0.88861   0.06562   0.00000  Uiso   1.00
N44    N     0.31023   0.54743   0.62266   0.00000  Uiso   1.00
N45    N     0.35174   0.92646   0.33592   0.00000  Uiso   1.00
N46    N     0.23639   0.88666   0.01623   0.00000  Uiso   1.00
C47    C     0.59264   0.21106   0.71204   0.00000  Uiso   1.00
C48    C     0.61632   0.27756   0.68897   0.00000  Uiso   1.00
C49    C     0.58098   0.33239   0.69706   0.00000  Uiso   1.00
C50    C     0.61126   0.38858   0.67246   0.00000  Uiso   1.00
C51    C     0.63837   0.49164   0.64137   0.00000  Uiso   1.00
C52    C     0.60488   0.17311   0.60992   0.00000  Uiso   1.00
C53    C     0.55991   0.14010   0.55157   0.00000  Uiso   1.00
C54    C     0.58057   0.10835   0.46044   0.00000  Uiso   1.00
C55    C     0.58992   0.04921   0.30669   0.00000  Uiso   1.00
C56    C     0.63667   0.18409   0.79742   0.00000  Uiso   1.00
C57    C     0.61843   0.16030   0.89671   0.00000  Uiso   1.00
C58    C     0.66585   0.13777   0.96343   0.00000  Uiso   1.00
C59    C     0.72457   0.09568   0.10080   0.00000  Uiso   1.00
C60    C     0.70928   0.21335   0.65396   0.00000  Uiso   1.00
C61    C     0.67967   0.27880   0.65742   0.00000  Uiso   1.00
C62    C     0.71002   0.33492   0.63280   0.00000  Uiso   1.00
C63    C     0.67473   0.38982   0.64086   0.00000  Uiso   1.00
C64    C     0.66823   0.17435   0.57838   0.00000  Uiso   1.00
C65    C     0.68895   0.14263   0.48731   0.00000  Uiso   1.00
C66    C     0.64403   0.10959   0.42884   0.00000  Uiso   1.00
C67    C     0.70002   0.18533   0.76588   0.00000  Uiso   1.00
C68    C     0.74748   0.16283   0.83245   0.00000  Uiso   1.00
C69    C     0.72932   0.13901   0.93183   0.00000  Uiso   1.00
H70    H     0.54332   0.21009   0.73660   0.00000  Uiso   1.00
H71    H     0.53195   0.33141   0.72147   0.00000  Uiso   1.00
H72    H     0.51089   0.13915   0.57601   0.00000  Uiso   1.00
H73    H     0.56940   0.15934   0.92110   0.00000  Uiso   1.00
H74    H     0.54727   0.46646   0.69074   0.00000  Uiso   1.00
H75    H     0.50287   0.06104   0.38406   0.00000  Uiso   1.00
H76    H     0.62625   0.10362   0.11174   0.00000  Uiso   1.00
H77    H     0.75861   0.21431   0.62940   0.00000  Uiso   1.00
H78    H     0.75905   0.33587   0.60839   0.00000  Uiso   1.00
H79    H     0.73798   0.14360   0.46293   0.00000  Uiso   1.00
H80    H     0.79650   0.16380   0.80802   0.00000  Uiso   1.00
H81    H     0.73159   0.47007   0.59896   0.00000  Uiso   1.00
H82    H     0.68719   0.06465   0.29228   0.00000  Uiso   1.00
H83    H     0.81057   0.10724   0.01996   0.00000  Uiso   1.00
O84    O     0.63583   0.54815   0.63292   0.00000  Uiso   1.00
O85    O     0.57758   0.01625   0.23059   0.00000  Uiso   1.00
O86    O     0.73945   0.07212   0.18529   0.00000  Uiso   1.00
N87    N     0.59059   0.45063   0.67204   0.00000  Uiso   1.00
N88    N     0.54908   0.07160   0.38531   0.00000  Uiso   1.00
N89    N     0.66443   0.11139   0.06562   0.00000  Uiso   1.00
N90    N     0.68977   0.45257   0.62266   0.00000  Uiso   1.00
N91    N     0.64826   0.07354   0.33592   0.00000  Uiso   1.00
N92    N     0.76361   0.11334   0.01623   0.00000  Uiso   1.00
C93    C     0.71106   0.90736   0.21204   0.00000  Uiso   1.00
C94    C     0.77756   0.88368   0.18897   0.00000  Uiso   1.00
C95    C     0.83239   0.91902   0.19706   0.00000  Uiso   1.00
C96    C     0.88858   0.88874   0.17246   0.00000  Uiso   1.00
C97    C     0.99164   0.86163   0.14137   0.00000  Uiso   1.00
C98    C     0.67311   0.89512   0.10992   0.00000  Uiso   1.00
C99    C     0.64010   0.94009   0.05157   0.00000  Uiso   1.00
C100   C     0.60835   0.91943   0.96044   0.00000  Uiso   1.00
C101   C     0.54921   0.91008   0.80669   0.00000  Uiso   1.00
C102   C     0.68409   0.86333   0.29742   0.00000  Uiso   1.00
C103   C     0.66030   0.88157   0.39671   0.00000  Uiso   1.00
C104   C     0.63777   0.83415   0.46343   0.00000  Uiso   1.00
C105   C     0.59568   0.77543   0.60080   0.00000  Uiso   1.00
C106   C     0.71335   0.79072   0.15396   0.00000  Uiso   1.00
C107   C     0.77880   0.82033   0.15742   0.00000  Uiso   1.00
C108   C     0.83492   0.78998   0.13280   0.00000  Uiso   1.00
C109   C     0.88982   0.82527   0.14086   0.00000  Uiso   1.00
C110   C     0.67435   0.83177   0.07838   0.00000  Uiso   1.00
C111   C     0.64263   0.81105   0.98731   0.00000  Uiso   1.00
C112   C     0.60959   0.85597   0.92884   0.00000  Uiso   1.00
C113   C     0.68533   0.79998   0.26588   0.00000  Uiso   1.00
C114   C     0.66283   0.75252   0.33245   0.00000  Uiso   1.00
C115   C     0.63901   0.77068   0.43183   0.00000  Uiso   1.00
H116   H     0.71009   0.95668   0.23660   0.00000  Uiso   1.00
H117   H     0.83141   0.96805   0.22147   0.00000  Uiso   1.00
H118   H     0.63915   0.98911   0.07601   0.00000  Uiso   1.00
H119   H     0.65934   0.93060   0.42110   0.00000  Uiso   1.00
H120   H     0.96646   0.95273   0.19074   0.00000  Uiso   1.00
H121   H     0.56104   0.99713   0.88406   0.00000  Uiso   1.00
H122   H     0.60362   0.87375   0.61174   0.00000  Uiso   1.00
H123   H     0.71431   0.74139   0.12940   0.00000  Uiso   1.00
H124   H     0.83587   0.74095   0.10839   0.00000  Uiso   1.00
H125   H     0.64360   0.76202   0.96293   0.00000  Uiso   1.00
H126   H     0.66380   0.70350   0.30802   0.00000  Uiso   1.00
H127   H     0.97007   0.76841   0.09896   0.00000  Uiso   1.00
H128   H     0.56465   0.81281   0.79228   0.00000  Uiso   1.00
H129   H     0.60724   0.68943   0.51996   0.00000  Uiso   1.00
O130   O     0.04815   0.86417   0.13292   0.00000  Uiso   1.00
O131   O     0.51625   0.92242   0.73059   0.00000  Uiso   1.00
O132   O     0.57212   0.76055   0.68529   0.00000  Uiso   1.00
N133   N     0.95063   0.90941   0.17204   0.00000  Uiso   1.00
N134   N     0.57160   0.95092   0.88531   0.00000  Uiso   1.00
N135   N     0.61139   0.83557   0.56562   0.00000  Uiso   1.00
N136   N     0.95257   0.81023   0.12266   0.00000  Uiso   1.00
N137   N     0.57354   0.85174   0.83592   0.00000  Uiso   1.00
N138   N     0.61334   0.73639   0.51623   0.00000  Uiso   1.00
C139   C     0.28894   0.09264   0.21204   0.00000  Uiso   1.00
C140   C     0.22244   0.11632   0.18897   0.00000  Uiso   1.00
C141   C     0.16761   0.08098   0.19706   0.00000  Uiso   1.00
C142   C     0.11142   0.11126   0.17246   0.00000  Uiso   1.00
C143   C     0.00836   0.13837   0.14137   0.00000  Uiso   1.00
C144   C     0.32689   0.10488   0.10992   0.00000  Uiso   1.00
C145   C     0.35990   0.05991   0.05157   0.00000  Uiso   1.00
C146   C     0.39165   0.08057   0.96044   0.00000  Uiso   1.00
C147   C     0.45079   0.08992   0.80669   0.00000  Uiso   1.00
C148   C     0.31591   0.13667   0.29742   0.00000  Uiso   1.00
C149   C     0.33970   0.11843   0.39671   0.00000  Uiso   1.00
C150   C     0.36223   0.16585   0.46343   0.00000  Uiso   1.00
C151   C     0.40432   0.22457   0.60080   0.00000  Uiso   1.00
C152   C     0.28665   0.20928   0.15396   0.00000  Uiso   1.00
C153   C     0.22120   0.17967   0.15742   0.00000  Uiso   1.00
C154   C     0.16508   0.21002   0.13280   0.00000  Uiso   1.00
C155   C     0.11018   0.17473   0.14086   0.00000  Uiso   1.00
C156   C     0.32565   0.16823   0.07838   0.00000  Uiso   1.00
C157   C     0.35737   0.18895   0.98731   0.00000  Uiso   1.00
C158   C     0.39041   0.14403   0.92884   0.00000  Uiso   1.00
C159   C     0.31467   0.20002   0.26588   0.00000  Uiso   1.00
C160   C     0.33717   0.24748   0.33245   0.00000  Uiso   1.00
C161   C     0.36099   0.22932   0.43183   0.00000  Uiso   1.00
H162   H     0.28991   0.04332   0.23660   0.00000  Uiso   1.00
H163   H     0.16859   0.03195   0.22147   0.00000  Uiso   1.00
H164   H     0.36085   0.01089   0.07601   0.00000  Uiso   1.00
H165   H     0.34066   0.06940   0.42110   0.00000  Uiso   1.00
H166   H     0.03354   0.04727   0.19074   0.00000  Uiso   1.00
H167   H     0.43896   0.00287   0.88406   0.00000  Uiso   1.00
H168   H     0.39638   0.12625   0.61174   0.00000  Uiso   1.00
H169   H     0.28569   0.25861   0.12940   0.00000  Uiso   1.00
H170   H     0.16413   0.25905   0.10839   0.00000  Uiso   1.00
H171   H     0.35640   0.23798   0.96293   0.00000  Uiso   1.00
H172   H     0.33620   0.29650   0.30802   0.00000  Uiso   1.00
H173   H     0.02993   0.23159   0.09896   0.00000  Uiso   1.00
H174   H     0.43535   0.18719   0.79228   0.00000  Uiso   1.00
H175   H     0.39276   0.31057   0.51996   0.00000  Uiso   1.00
O176   O     0.95185   0.13583   0.13292   0.00000  Uiso   1.00
O177   O     0.48375   0.07758   0.73059   0.00000  Uiso   1.00
O178   O     0.42788   0.23945   0.68529   0.00000  Uiso   1.00
N179   N     0.04937   0.09059   0.17204   0.00000  Uiso   1.00
N180   N     0.42840   0.04908   0.88531   0.00000  Uiso   1.00
N181   N     0.38861   0.16443   0.56562   0.00000  Uiso   1.00
N182   N     0.04743   0.18977   0.12266   0.00000  Uiso   1.00
N183   N     0.42646   0.14826   0.83592   0.00000  Uiso   1.00
N184   N     0.38666   0.26361   0.51623   0.00000  Uiso   1.00
C185   C     0.09264   0.28894   0.78796   0.00000  Uiso   1.00
C186   C     0.11632   0.22244   0.81103   0.00000  Uiso   1.00
C187   C     0.08098   0.16761   0.80294   0.00000  Uiso   1.00
C188   C     0.11126   0.11142   0.82754   0.00000  Uiso   1.00
C189   C     0.13837   0.00836   0.85863   0.00000  Uiso   1.00
C190   C     0.10488   0.32689   0.89008   0.00000  Uiso   1.00
C191   C     0.05991   0.35990   0.94843   0.00000  Uiso   1.00
C192   C     0.08057   0.39165   0.03956   0.00000  Uiso   1.00
C193   C     0.08992   0.45079   0.19331   0.00000  Uiso   1.00
C194   C     0.13667   0.31591   0.70258   0.00000  Uiso   1.00
C195   C     0.11843   0.33970   0.60329   0.00000  Uiso   1.00
C196   C     0.16585   0.36223   0.53657   0.00000  Uiso   1.00
C197   C     0.22457   0.40432   0.39920   0.00000  Uiso   1.00
C198   C     0.20928   0.28665   0.84604   0.00000  Uiso   1.00
C199   C     0.17967   0.22120   0.84258   0.00000  Uiso   1.00
C200   C     0.21002   0.16508   0.86720   0.00000  Uiso   1.00
C201   C     0.17473   0.11018   0.85914   0.00000  Uiso   1.00
C202   C     0.16823   0.32565   0.92162   0.00000  Uiso   1.00
C203   C     0.18895   0.35737   0.01269   0.00000  Uiso   1.00
C204   C     0.14403   0.39041   0.07116   0.00000  Uiso   1.00
C205   C     0.20002   0.31467   0.73412   0.00000  Uiso   1.00
C206   C     0.24748   0.33717   0.66755   0.00000  Uiso   1.00
C207   C     0.22932   0.36099   0.56817   0.00000  Uiso   1.00
H208   H     0.04332   0.28991   0.76340   0.00000  Uiso   1.00
H209   H     0.03195   0.16859   0.77853   0.00000  Uiso   1.00
H210   H     0.01089   0.36085   0.92399   0.00000  Uiso   1.00
H211   H     0.06940   0.34066   0.57890   0.00000  Uiso   1.00
H212   H     0.04727   0.03354   0.80926   0.00000  Uiso   1.00
H213   H     0.00287   0.43896   0.11594   0.00000  Uiso   1.00
H214   H     0.12625   0.39638   0.38826   0.00000  Uiso   1.00
H215   H     0.25861   0.28569   0.87060   0.00000  Uiso   1.00
H216   H     0.25905   0.16413   0.89161   0.00000  Uiso   1.00
H217   H     0.23798   0.35640   0.03707   0.00000  Uiso   1.00
H218   H     0.29650   0.33620   0.69198   0.00000  Uiso   1.00
H219   H     0.23159   0.02993   0.90104   0.00000  Uiso   1.00
H220   H     0.18719   0.43535   0.20772   0.00000  Uiso   1.00
H221   H     0.31057   0.39276   0.48004   0.00000  Uiso   1.00
O222   O     0.13583   0.95185   0.86708   0.00000  Uiso   1.00
O223   O     0.07758   0.48375   0.26941   0.00000  Uiso   1.00
O224   O     0.23945   0.42788   0.31471   0.00000  Uiso   1.00
N225   N     0.09059   0.04937   0.82796   0.00000  Uiso   1.00
N226   N     0.04908   0.42840   0.11469   0.00000  Uiso   1.00
N227   N     0.16443   0.38861   0.43438   0.00000  Uiso   1.00
N228   N     0.18977   0.04743   0.87734   0.00000  Uiso   1.00
N229   N     0.14826   0.42646   0.16408   0.00000  Uiso   1.00
N230   N     0.26361   0.38666   0.48377   0.00000  Uiso   1.00
C231   C     0.90736   0.71106   0.78796   0.00000  Uiso   1.00
C232   C     0.88368   0.77756   0.81103   0.00000  Uiso   1.00
C233   C     0.91902   0.83239   0.80294   0.00000  Uiso   1.00
C234   C     0.88874   0.88858   0.82754   0.00000  Uiso   1.00
C235   C     0.86163   0.99164   0.85863   0.00000  Uiso   1.00
C236   C     0.89512   0.67311   0.89008   0.00000  Uiso   1.00
C237   C     0.94009   0.64010   0.94843   0.00000  Uiso   1.00
C238   C     0.91943   0.60835   0.03956   0.00000  Uiso   1.00
C239   C     0.91008   0.54921   0.19331   0.00000  Uiso   1.00
C240   C     0.86333   0.68409   0.70258   0.00000  Uiso   1.00
C241   C     0.88157   0.66030   0.60329   0.00000  Uiso   1.00
C242   C     0.83415   0.63777   0.53657   0.00000  Uiso   1.00
C243   C     0.77543   0.59568   0.39920   0.00000  Uiso   1.00
C244   C     0.79072   0.71335   0.84604   0.00000  Uiso   1.00
C245   C     0.82033   0.77880   0.84258   0.00000  Uiso   1.00
C246   C     0.78998   0.83492   0.86720   0.00000  Uiso   1.00
C247   C     0.82527   0.88982   0.85914   0.00000  Uiso   1.00
C248   C     0.83177   0.67435   0.92162   0.00000  Uiso   1.00
C249   C     0.81105   0.64263   0.01269   0.00000  Uiso   1.00
C250   C     0.85597   0.60959   0.07116   0.00000  Uiso   1.00
C251   C     0.79998   0.68533   0.73412   0.00000  Uiso   1.00
C252   C     0.75252   0.66283   0.66755   0.00000  Uiso   1.00
C253   C     0.77068   0.63901   0.56817   0.00000  Uiso   1.00
H254   H     0.95668   0.71009   0.76340   0.00000  Uiso   1.00
H255   H     0.96805   0.83141   0.77853   0.00000  Uiso   1.00
H256   H     0.98911   0.63915   0.92399   0.00000  Uiso   1.00
H257   H     0.93060   0.65934   0.57890   0.00000  Uiso   1.00
H258   H     0.95273   0.96646   0.80926   0.00000  Uiso   1.00
H259   H     0.99713   0.56104   0.11594   0.00000  Uiso   1.00
H260   H     0.87375   0.60362   0.38826   0.00000  Uiso   1.00
H261   H     0.74139   0.71431   0.87060   0.00000  Uiso   1.00
H262   H     0.74095   0.83587   0.89161   0.00000  Uiso   1.00
H263   H     0.76202   0.64360   0.03707   0.00000  Uiso   1.00
H264   H     0.70350   0.66380   0.69198   0.00000  Uiso   1.00
H265   H     0.76841   0.97007   0.90104   0.00000  Uiso   1.00
H266   H     0.81281   0.56465   0.20772   0.00000  Uiso   1.00
H267   H     0.68943   0.60724   0.48004   0.00000  Uiso   1.00
O268   O     0.86417   0.04815   0.86708   0.00000  Uiso   1.00
O269   O     0.92242   0.51625   0.26941   0.00000  Uiso   1.00
O270   O     0.76055   0.57212   0.31471   0.00000  Uiso   1.00
N271   N     0.90941   0.95063   0.82796   0.00000  Uiso   1.00
N272   N     0.95092   0.57160   0.11469   0.00000  Uiso   1.00
N273   N     0.83557   0.61139   0.43438   0.00000  Uiso   1.00
N274   N     0.81023   0.95257   0.87734   0.00000  Uiso   1.00
N275   N     0.85174   0.57354   0.16408   0.00000  Uiso   1.00
N276   N     0.73639   0.61334   0.48377   0.00000  Uiso   1.00
C277   C     0.78894   0.40736   0.28796   0.00000  Uiso   1.00
C278   C     0.72244   0.38368   0.31103   0.00000  Uiso   1.00
C279   C     0.66761   0.41902   0.30294   0.00000  Uiso   1.00
C280   C     0.61142   0.38874   0.32754   0.00000  Uiso   1.00
C281   C     0.50836   0.36163   0.35863   0.00000  Uiso   1.00
C282   C     0.82689   0.39512   0.39008   0.00000  Uiso   1.00
C283   C     0.85990   0.44009   0.44843   0.00000  Uiso   1.00
C284   C     0.89165   0.41943   0.53956   0.00000  Uiso   1.00
C285   C     0.95079   0.41008   0.69331   0.00000  Uiso   1.00
C286   C     0.81591   0.36333   0.20258   0.00000  Uiso   1.00
C287   C     0.83970   0.38157   0.10329   0.00000  Uiso   1.00
C288   C     0.86223   0.33415   0.03657   0.00000  Uiso   1.00
C289   C     0.90432   0.27543   0.89920   0.00000  Uiso   1.00
C290   C     0.78665   0.29072   0.34604   0.00000  Uiso   1.00
C291   C     0.72120   0.32033   0.34258   0.00000  Uiso   1.00
C292   C     0.66508   0.28998   0.36720   0.00000  Uiso   1.00
C293   C     0.61018   0.32527   0.35914   0.00000  Uiso   1.00
C294   C     0.82565   0.33177   0.42162   0.00000  Uiso   1.00
C295   C     0.85737   0.31105   0.51269   0.00000  Uiso   1.00
C296   C     0.89041   0.35597   0.57116   0.00000  Uiso   1.00
C297   C     0.81467   0.29998   0.23412   0.00000  Uiso   1.00
C298   C     0.83717   0.25252   0.16755   0.00000  Uiso   1.00
C299   C     0.86099   0.27068   0.06817   0.00000  Uiso   1.00
H300   H     0.78991   0.45668   0.26340   0.00000  Uiso   1.00
H301   H     0.66859   0.46805   0.27853   0.00000  Uiso   1.00
H302   H     0.86085   0.48911   0.42399   0.00000  Uiso   1.00
H303   H     0.84066   0.43060   0.07890   0.00000  Uiso   1.00
H304   H     0.53354   0.45273   0.30926   0.00000  Uiso   1.00
H305   H     0.93896   0.49713   0.61594   0.00000  Uiso   1.00
H306   H     0.89638   0.37375   0.88826   0.00000  Uiso   1.00
H307   H     0.78569   0.24139   0.37060   0.00000  Uiso   1.00
H308   H     0.66413   0.24095   0.39161   0.00000  Uiso   1.00
H309   H     0.85640   0.26202   0.53707   0.00000  Uiso   1.00
H310   H     0.83620   0.20350   0.19198   0.00000  Uiso   1.00
H311   H     0.52993   0.26841   0.40104   0.00000  Uiso   1.00
H312   H     0.93535   0.31281   0.70772   0.00000  Uiso   1.00
H313   H     0.89276   0.18943   0.98004   0.00000  Uiso   1.00
O314   O     0.45185   0.36417   0.36708   0.00000  Uiso   1.00
O315   O     0.98375   0.42242   0.76941   0.00000  Uiso   1.00
O316   O     0.92788   0.26055   0.81471   0.00000  Uiso   1.00
N317   N     0.54937   0.40941   0.32796   0.00000  Uiso   1.00
N318   N     0.92840   0.45092   0.61469   0.00000  Uiso   1.00
N319   N     0.88861   0.33557   0.93438   0.00000  Uiso   1.00
N320   N     0.54743   0.31023   0.37734   0.00000  Uiso   1.00
N321   N     0.92646   0.35174   0.66408   0.00000  Uiso   1.00
N322   N     0.88666   0.23639   0.98377   0.00000  Uiso   1.00
C323   C     0.21106   0.59264   0.28796   0.00000  Uiso   1.00
C324   C     0.27756   0.61632   0.31103   0.00000  Uiso   1.00
C325   C     0.33239   0.58098   0.30294   0.00000  Uiso   1.00
C326   C     0.38858   0.61126   0.32754   0.00000  Uiso   1.00
C327   C     0.49164   0.63837   0.35863   0.00000  Uiso   1.00
C328   C     0.17311   0.60488   0.39008   0.00000  Uiso   1.00
C329   C     0.14010   0.55991   0.44843   0.00000  Uiso   1.00
C330   C     0.10835   0.58057   0.53956   0.00000  Uiso   1.00
C331   C     0.04921   0.58992   0.69331   0.00000  Uiso   1.00
C332   C     0.18409   0.63667   0.20258   0.00000  Uiso   1.00
C333   C     0.16030   0.61843   0.10329   0.00000  Uiso   1.00
C334   C     0.13777   0.66585   0.03657   0.00000  Uiso   1.00
C335   C     0.09568   0.72457   0.89920   0.00000  Uiso   1.00
C336   C     0.21335   0.70928   0.34604   0.00000  Uiso   1.00
C337   C     0.27880   0.67967   0.34258   0.00000  Uiso   1.00
C338   C     0.33492   0.71002   0.36720   0.00000  Uiso   1.00
C339   C     0.38982   0.67473   0.35914   0.00000  Uiso   1.00
C340   C     0.17435   0.66823   0.42162   0.00000  Uiso   1.00
C341   C     0.14263   0.68895   0.51269   0.00000  Uiso   1.00
C342   C     0.10959   0.64403   0.57116   0.00000  Uiso   1.00
C343   C     0.18533   0.70002   0.23412   0.00000  Uiso   1.00
C344   C     0.16283   0.74748   0.16755   0.00000  Uiso   1.00
C345   C     0.13901   0.72932   0.06817   0.00000  Uiso   1.00
H346   H     0.21009   0.54332   0.26340   0.00000  Uiso   1.00
H347   H     0.33141   0.53195   0.27853   0.00000  Uiso   1.00
H348   H     0.13915   0.51089   0.42399   0.00000  Uiso   1.00
H349   H     0.15934   0.56940   0.07890   0.00000  Uiso   1.00
H350   H     0.46646   0.54727   0.30926   0.00000  Uiso   1.00
H351   H     0.06104   0.50287   0.61594   0.00000  Uiso   1.00
H352   H     0.10362   0.62625   0.88826   0.00000  Uiso   1.00
H353   H     0.21431   0.75861   0.37060   0.00000  Uiso   1.00
H354   H     0.33587   0.75905   0.39161   0.00000  Uiso   1.00
H355   H     0.14360   0.73798   0.53707   0.00000  Uiso   1.00
H356   H     0.16380   0.79650   0.19198   0.00000  Uiso   1.00
H357   H     0.47007   0.73159   0.40104   0.00000  Uiso   1.00
H358   H     0.06465   0.68719   0.70772   0.00000  Uiso   1.00
H359   H     0.10724   0.81057   0.98004   0.00000  Uiso   1.00
O360   O     0.54815   0.63583   0.36708   0.00000  Uiso   1.00
O361   O     0.01625   0.57758   0.76941   0.00000  Uiso   1.00
O362   O     0.07212   0.73945   0.81471   0.00000  Uiso   1.00
N363   N     0.45063   0.59059   0.32796   0.00000  Uiso   1.00
N364   N     0.07160   0.54908   0.61469   0.00000  Uiso   1.00
N365   N     0.11139   0.66443   0.93438   0.00000  Uiso   1.00
N366   N     0.45257   0.68977   0.37734   0.00000  Uiso   1.00
N367   N     0.07354   0.64826   0.66408   0.00000  Uiso   1.00
N368   N     0.11334   0.76361   0.98377   0.00000  Uiso   1.00
