data_job_07101
_audit_creation_date              2018-12-19
_audit_creation_method            'Materials Studio'
_symmetry_space_group_name_H-M    'P1'
_symmetry_Int_Tables_number       1
_symmetry_cell_setting            triclinic
loop_
_symmetry_equiv_pos_as_xyz
  x,y,z
_cell_length_a                    19.3664
_cell_length_b                    21.8282
_cell_length_c                    22.2036
_cell_angle_alpha                 90.3036
_cell_angle_beta                  90.6365
_cell_angle_gamma                 91.6852
loop_
_atom_site_label
_atom_site_type_symbol
_atom_site_fract_x
_atom_site_fract_y
_atom_site_fract_z
_atom_site_U_iso_or_equiv
_atom_site_adp_type
_atom_site_occupancy
C1     C     0.34624   0.75837   0.44281   0.00000  Uiso   1.00
C2     C     0.33058   0.82641   0.44450   0.00000  Uiso   1.00
C3     C     0.32881   0.86279   0.49587   0.00000  Uiso   1.00
C4     C     0.31347   0.92398   0.48793   0.00000  Uiso   1.00
C5     C     0.29111   0.02599   0.49928   0.00000  Uiso   1.00
C6     C     0.28455   0.72665   0.41126   0.00000  Uiso   1.00
C7     C     0.24409   0.67915   0.43468   0.00000  Uiso   1.00
C8     C     0.19001   0.65636   0.39874   0.00000  Uiso   1.00
C9     C     0.09621   0.60346   0.35845   0.00000  Uiso   1.00
C10    C     0.40707   0.75217   0.40041   0.00000  Uiso   1.00
C11    C     0.46963   0.72612   0.41470   0.00000  Uiso   1.00
C12    C     0.51870   0.72479   0.36962   0.00000  Uiso   1.00
C13    C     0.61514   0.71152   0.31249   0.00000  Uiso   1.00
C14    C     0.32213   0.80233   0.33735   0.00000  Uiso   1.00
C15    C     0.31748   0.85029   0.38722   0.00000  Uiso   1.00
C16    C     0.30214   0.91143   0.37920   0.00000  Uiso   1.00
C17    C     0.30036   0.94790   0.43055   0.00000  Uiso   1.00
C18    C     0.27145   0.75053   0.35398   0.00000  Uiso   1.00
C19    C     0.21742   0.72779   0.31800   0.00000  Uiso   1.00
C20    C     0.17689   0.68027   0.34136   0.00000  Uiso   1.00
C21    C     0.39397   0.77605   0.34312   0.00000  Uiso   1.00
C22    C     0.44295   0.77476   0.29802   0.00000  Uiso   1.00
C23    C     0.50558   0.74871   0.31224   0.00000  Uiso   1.00
H24    H     0.35643   0.73978   0.48740   0.00000  Uiso   1.00
H25    H     0.33895   0.84430   0.54020   0.00000  Uiso   1.00
H26    H     0.25424   0.66068   0.47900   0.00000  Uiso   1.00
H27    H     0.47975   0.70764   0.45903   0.00000  Uiso   1.00
H28    H     0.31376   0.97070   0.57347   0.00000  Uiso   1.00
H29    H     0.13517   0.58352   0.44443   0.00000  Uiso   1.00
H30    H     0.61069   0.68255   0.40231   0.00000  Uiso   1.00
H31    H     0.31193   0.82092   0.29275   0.00000  Uiso   1.00
H32    H     0.29200   0.92990   0.33486   0.00000  Uiso   1.00
H33    H     0.20730   0.74628   0.27367   0.00000  Uiso   1.00
H34    H     0.43280   0.79324   0.25370   0.00000  Uiso   1.00
H35    H     0.27565   0.04017   0.40681   0.00000  Uiso   1.00
H36    H     0.09707   0.65299   0.27777   0.00000  Uiso   1.00
H37    H     0.57259   0.75202   0.23565   0.00000  Uiso   1.00
O38    O     0.28238   0.07565   0.52136   0.00000  Uiso   1.00
O39    O     0.04809   0.56769   0.35206   0.00000  Uiso   1.00
O40    O     0.67196   0.69761   0.29680   0.00000  Uiso   1.00
N41    N     0.30754   0.97210   0.52846   0.00000  Uiso   1.00
N42    N     0.14057   0.61012   0.40783   0.00000  Uiso   1.00
N43    N     0.58513   0.70268   0.36844   0.00000  Uiso   1.00
N44    N     0.28704   0.00948   0.43879   0.00000  Uiso   1.00
N45    N     0.12006   0.64750   0.31815   0.00000  Uiso   1.00
N46    N     0.56463   0.74007   0.27877   0.00000  Uiso   1.00
C47    C     0.43283   0.35008   0.64173   0.00000  Uiso   1.00
C48    C     0.42697   0.38079   0.70324   0.00000  Uiso   1.00
C49    C     0.48176   0.40341   0.73840   0.00000  Uiso   1.00
C50    C     0.46563   0.42985   0.79329   0.00000  Uiso   1.00
C51    C     0.46694   0.47694   0.88592   0.00000  Uiso   1.00
C52    C     0.39676   0.28735   0.64724   0.00000  Uiso   1.00
C53    C     0.42615   0.23141   0.63530   0.00000  Uiso   1.00
C54    C     0.38459   0.17919   0.64304   0.00000  Uiso   1.00
C55    C     0.33899   0.08122   0.64867   0.00000  Uiso   1.00
C56    C     0.38836   0.38672   0.59868   0.00000  Uiso   1.00
C57    C     0.41069   0.41431   0.54591   0.00000  Uiso   1.00
C58    C     0.36205   0.44575   0.51276   0.00000  Uiso   1.00
C59    C     0.30342   0.50207   0.44301   0.00000  Uiso   1.00
C60    C     0.30675   0.35682   0.67669   0.00000  Uiso   1.00
C61    C     0.35849   0.38444   0.72222   0.00000  Uiso   1.00
C62    C     0.34227   0.41086   0.77707   0.00000  Uiso   1.00
C63    C     0.39702   0.43352   0.81231   0.00000  Uiso   1.00
C64    C     0.32828   0.29101   0.66622   0.00000  Uiso   1.00
C65    C     0.28666   0.23886   0.67397   0.00000  Uiso   1.00
C66    C     0.31598   0.18285   0.66205   0.00000  Uiso   1.00
C67    C     0.31988   0.39038   0.61767   0.00000  Uiso   1.00
C68    C     0.27120   0.42177   0.58459   0.00000  Uiso   1.00
C69    C     0.29344   0.44941   0.53178   0.00000  Uiso   1.00
H70    H     0.48614   0.34723   0.62695   0.00000  Uiso   1.00
H71    H     0.53475   0.40056   0.72370   0.00000  Uiso   1.00
H72    H     0.47914   0.22859   0.62060   0.00000  Uiso   1.00
H73    H     0.46368   0.41147   0.53123   0.00000  Uiso   1.00
H74    H     0.55843   0.46128   0.83934   0.00000  Uiso   1.00
H75    H     0.44119   0.09867   0.62194   0.00000  Uiso   1.00
H76    H     0.40859   0.48432   0.43348   0.00000  Uiso   1.00
H77    H     0.25343   0.35966   0.69147   0.00000  Uiso   1.00
H78    H     0.28927   0.41368   0.79175   0.00000  Uiso   1.00
H79    H     0.23367   0.24171   0.68866   0.00000  Uiso   1.00
H80    H     0.21821   0.42459   0.59929   0.00000  Uiso   1.00
H81    H     0.35920   0.47193   0.89458   0.00000  Uiso   1.00
H82    H     0.24195   0.10932   0.67717   0.00000  Uiso   1.00
H83    H     0.20935   0.49496   0.48872   0.00000  Uiso   1.00
O84    O     0.48659   0.50190   0.93177   0.00000  Uiso   1.00
O85    O     0.33276   0.02617   0.64654   0.00000  Uiso   1.00
O86    O     0.28999   0.53213   0.39930   0.00000  Uiso   1.00
N87    N     0.50662   0.45639   0.83857   0.00000  Uiso   1.00
N88    N     0.39701   0.11737   0.63533   0.00000  Uiso   1.00
N89    N     0.36653   0.47790   0.45913   0.00000  Uiso   1.00
N90    N     0.39942   0.46212   0.86829   0.00000  Uiso   1.00
N91    N     0.28980   0.12310   0.66505   0.00000  Uiso   1.00
N92    N     0.25932   0.48363   0.48885   0.00000  Uiso   1.00
C93    C     0.77916   0.47905   0.17928   0.00000  Uiso   1.00
C94    C     0.78365   0.40942   0.17988   0.00000  Uiso   1.00
C95    C     0.84414   0.37687   0.18012   0.00000  Uiso   1.00
C96    C     0.83729   0.31339   0.18067   0.00000  Uiso   1.00
C97    C     0.85416   0.20981   0.18153   0.00000  Uiso   1.00
C98    C     0.73512   0.49425   0.12430   0.00000  Uiso   1.00
C99    C     0.75479   0.53302   0.07781   0.00000  Uiso   1.00
C100   C     0.70708   0.54094   0.03158   0.00000  Uiso   1.00
C101   C     0.64859   0.56909   0.94617   0.00000  Uiso   1.00
C102   C     0.73666   0.49588   0.23403   0.00000  Uiso   1.00
C103   C     0.75762   0.53603   0.27979   0.00000  Uiso   1.00
C104   C     0.71121   0.54534   0.32593   0.00000  Uiso   1.00
C105   C     0.65510   0.57601   0.41089   0.00000  Uiso   1.00
C106   C     0.65944   0.42418   0.17984   0.00000  Uiso   1.00
C107   C     0.71862   0.37962   0.18018   0.00000  Uiso   1.00
C108   C     0.71168   0.31617   0.18073   0.00000  Uiso   1.00
C109   C     0.77215   0.28353   0.18097   0.00000  Uiso   1.00
C110   C     0.67009   0.46445   0.12460   0.00000  Uiso   1.00
C111   C     0.62234   0.47232   0.07843   0.00000  Uiso   1.00
C112   C     0.64194   0.51109   0.03188   0.00000  Uiso   1.00
C113   C     0.67163   0.46607   0.23433   0.00000  Uiso   1.00
C114   C     0.62517   0.47532   0.28040   0.00000  Uiso   1.00
C115   C     0.64606   0.51548   0.32623   0.00000  Uiso   1.00
H116   H     0.82978   0.50225   0.17904   0.00000  Uiso   1.00
H117   H     0.89445   0.39995   0.17988   0.00000  Uiso   1.00
H118   H     0.80512   0.55608   0.07759   0.00000  Uiso   1.00
H119   H     0.80795   0.55909   0.27954   0.00000  Uiso   1.00
H120   H     0.93747   0.27339   0.18092   0.00000  Uiso   1.00
H121   H     0.74910   0.60261   0.96525   0.00000  Uiso   1.00
H122   H     0.75507   0.60895   0.39110   0.00000  Uiso   1.00
H123   H     0.60881   0.40098   0.18007   0.00000  Uiso   1.00
H124   H     0.66135   0.29312   0.18097   0.00000  Uiso   1.00
H125   H     0.57202   0.44925   0.07868   0.00000  Uiso   1.00
H126   H     0.57485   0.45225   0.28062   0.00000  Uiso   1.00
H127   H     0.74828   0.18668   0.18180   0.00000  Uiso   1.00
H128   H     0.55991   0.51591   0.96613   0.00000  Uiso   1.00
H129   H     0.56588   0.52224   0.39198   0.00000  Uiso   1.00
O130   O     0.88143   0.16091   0.18191   0.00000  Uiso   1.00
O131   O     0.63429   0.59285   0.89897   0.00000  Uiso   1.00
O132   O     0.64212   0.60116   0.45767   0.00000  Uiso   1.00
N133   N     0.88573   0.26779   0.18102   0.00000  Uiso   1.00
N134   N     0.70962   0.57558   0.97938   0.00000  Uiso   1.00
N135   N     0.71520   0.58152   0.37750   0.00000  Uiso   1.00
N136   N     0.78393   0.22113   0.18149   0.00000  Uiso   1.00
N137   N     0.60782   0.52892   0.97985   0.00000  Uiso   1.00
N138   N     0.61339   0.53486   0.37797   0.00000  Uiso   1.00
C139   C     0.43780   0.04995   0.97228   0.00000  Uiso   1.00
C140   C     0.49853   0.05059   0.01661   0.00000  Uiso   1.00
C141   C     0.51131   0.09386   0.06169   0.00000  Uiso   1.00
C142   C     0.56960   0.08638   0.09755   0.00000  Uiso   1.00
C143   C     0.65720   0.09482   0.16777   0.00000  Uiso   1.00
C144   C     0.40103   0.98771   0.97933   0.00000  Uiso   1.00
C145   C     0.33183   0.97811   0.99306   0.00000  Uiso   1.00
C146   C     0.30805   0.91769   0.99754   0.00000  Uiso   1.00
C147   C     0.24427   0.82850   0.00984   0.00000  Uiso   1.00
C148   C     0.46922   0.04972   0.90961   0.00000  Uiso   1.00
C149   C     0.45734   0.09225   0.86471   0.00000  Uiso   1.00
C150   C     0.49095   0.08403   0.81047   0.00000  Uiso   1.00
C151   C     0.53304   0.09112   0.71452   0.00000  Uiso   1.00
C152   C     0.51861   0.95973   0.95581   0.00000  Uiso   1.00
C153   C     0.54242   0.00158   0.00766   0.00000  Uiso   1.00
C154   C     0.60071   0.99404   0.04347   0.00000  Uiso   1.00
C155   C     0.61358   0.03729   0.08859   0.00000  Uiso   1.00
C156   C     0.44492   0.93870   0.97039   0.00000  Uiso   1.00
C157   C     0.42123   0.87829   0.97484   0.00000  Uiso   1.00
C158   C     0.35202   0.86860   0.98858   0.00000  Uiso   1.00
C159   C     0.51311   0.00071   0.90066   0.00000  Uiso   1.00
C160   C     0.54674   0.99243   0.84649   0.00000  Uiso   1.00
C161   C     0.53492   0.03494   0.80151   0.00000  Uiso   1.00
H162   H     0.40363   0.08810   0.97924   0.00000  Uiso   1.00
H163   H     0.47732   0.13178   0.06860   0.00000  Uiso   1.00
H164   H     0.29787   0.01604   0.99997   0.00000  Uiso   1.00
H165   H     0.42337   0.13016   0.87164   0.00000  Uiso   1.00
H166   H     0.57838   0.15858   0.16374   0.00000  Uiso   1.00
H167   H     0.19999   0.91454   0.01902   0.00000  Uiso   1.00
H168   H     0.46461   0.15519   0.74841   0.00000  Uiso   1.00
H169   H     0.55278   0.92157   0.94884   0.00000  Uiso   1.00
H170   H     0.63467   0.95611   0.03653   0.00000  Uiso   1.00
H171   H     0.45521   0.84038   0.96791   0.00000  Uiso   1.00
H172   H     0.58071   0.95450   0.83958   0.00000  Uiso   1.00
H173   H     0.70608   0.01600   0.13771   0.00000  Uiso   1.00
H174   H     0.32769   0.77196   0.99299   0.00000  Uiso   1.00
H175   H     0.59231   0.01262   0.72239   0.00000  Uiso   1.00
O176   O     0.69339   0.11300   0.20897   0.00000  Uiso   1.00
O177   O     0.19696   0.79284   0.01910   0.00000  Uiso   1.00
O178   O     0.54414   0.10857   0.66407   0.00000  Uiso   1.00
N179   N     0.59720   0.12029   0.14557   0.00000  Uiso   1.00
N180   N     0.24343   0.89213   0.01028   0.00000  Uiso   1.00
N181   N     0.49082   0.11711   0.75727   0.00000  Uiso   1.00
N182   N     0.66592   0.04357   0.13157   0.00000  Uiso   1.00
N183   N     0.31215   0.81541   0.99628   0.00000  Uiso   1.00
N184   N     0.55953   0.04039   0.74327   0.00000  Uiso   1.00
C185   C     0.78944   0.21702   0.50879   0.00000  Uiso   1.00
C186   C     0.75114   0.24486   0.56146   0.00000  Uiso   1.00
C187   C     0.76930   0.29935   0.59084   0.00000  Uiso   1.00
C188   C     0.72761   0.31697   0.63797   0.00000  Uiso   1.00
C189   C     0.67691   0.36564   0.71714   0.00000  Uiso   1.00
C190   C     0.73624   0.20857   0.45806   0.00000  Uiso   1.00
C191   C     0.74187   0.23253   0.40049   0.00000  Uiso   1.00
C192   C     0.68764   0.21959   0.36057   0.00000  Uiso   1.00
C193   C     0.61383   0.21187   0.27918   0.00000  Uiso   1.00
C194   C     0.80806   0.15268   0.52841   0.00000  Uiso   1.00
C195   C     0.87409   0.12964   0.52998   0.00000  Uiso   1.00
C196   C     0.88032   0.06964   0.54928   0.00000  Uiso   1.00
C197   C     0.91803   0.97514   0.57713   0.00000  Uiso   1.00
C198   C     0.68311   0.15142   0.54025   0.00000  Uiso   1.00
C199   C     0.69339   0.20923   0.57855   0.00000  Uiso   1.00
C200   C     0.65166   0.22677   0.62565   0.00000  Uiso   1.00
C201   C     0.66976   0.28128   0.65509   0.00000  Uiso   1.00
C202   C     0.67849   0.17294   0.47514   0.00000  Uiso   1.00
C203   C     0.62424   0.15995   0.43529   0.00000  Uiso   1.00
C204   C     0.62978   0.18389   0.37768   0.00000  Uiso   1.00
C205   C     0.75031   0.11705   0.54550   0.00000  Uiso   1.00
C206   C     0.75645   0.05706   0.56480   0.00000  Uiso   1.00
C207   C     0.82247   0.03394   0.56640   0.00000  Uiso   1.00
H208   H     0.83440   0.24476   0.49548   0.00000  Uiso   1.00
H209   H     0.81399   0.32692   0.57760   0.00000  Uiso   1.00
H210   H     0.78657   0.26010   0.38728   0.00000  Uiso   1.00
H211   H     0.91876   0.15723   0.51676   0.00000  Uiso   1.00
H212   H     0.76589   0.40230   0.67616   0.00000  Uiso   1.00
H213   H     0.70808   0.26139   0.27485   0.00000  Uiso   1.00
H214   H     0.98684   0.04447   0.54788   0.00000  Uiso   1.00
H215   H     0.63815   0.12368   0.55355   0.00000  Uiso   1.00
H216   H     0.60697   0.19919   0.63886   0.00000  Uiso   1.00
H217   H     0.57955   0.13237   0.44853   0.00000  Uiso   1.00
H218   H     0.71175   0.02950   0.57801   0.00000  Uiso   1.00
H219   H     0.59786   0.29863   0.72588   0.00000  Uiso   1.00
H220   H     0.54006   0.15772   0.32456   0.00000  Uiso   1.00
H221   H     0.81881   0.94080   0.59760   0.00000  Uiso   1.00
O222   O     0.66490   0.40234   0.75608   0.00000  Uiso   1.00
O223   O     0.58907   0.21746   0.22956   0.00000  Uiso   1.00
O224   O     0.95479   0.93287   0.58778   0.00000  Uiso   1.00
N225   N     0.73063   0.36753   0.67617   0.00000  Uiso   1.00
N226   N     0.67658   0.23580   0.30096   0.00000  Uiso   1.00
N227   N     0.93719   0.03299   0.55621   0.00000  Uiso   1.00
N228   N     0.64022   0.31175   0.70292   0.00000  Uiso   1.00
N229   N     0.58617   0.18002   0.32772   0.00000  Uiso   1.00
N230   N     0.84678   0.97721   0.58296   0.00000  Uiso   1.00
C231   C     0.89589   0.67208   0.97102   0.00000  Uiso   1.00
C232   C     0.93568   0.72843   0.94809   0.00000  Uiso   1.00
C233   C     0.00272   0.74609   0.96452   0.00000  Uiso   1.00
C234   C     0.02992   0.79909   0.93851   0.00000  Uiso   1.00
C235   C     0.09758   0.88138   0.90911   0.00000  Uiso   1.00
C236   C     0.87379   0.63516   0.91522   0.00000  Uiso   1.00
C237   C     0.88879   0.57440   0.90402   0.00000  Uiso   1.00
C238   C     0.86389   0.54888   0.85033   0.00000  Uiso   1.00
C239   C     0.83542   0.48636   0.76992   0.00000  Uiso   1.00
C240   C     0.82962   0.69564   0.99808   0.00000  Uiso   1.00
C241   C     0.80746   0.68571   0.05654   0.00000  Uiso   1.00
C242   C     0.74536   0.71111   0.07262   0.00000  Uiso   1.00
C243   C     0.64830   0.74249   0.12086   0.00000  Uiso   1.00
C244   C     0.82499   0.73481   0.89561   0.00000  Uiso   1.00
C245   C     0.89717   0.76250   0.90713   0.00000  Uiso   1.00
C246   C     0.92428   0.81549   0.88109   0.00000  Uiso   1.00
C247   C     0.99135   0.83322   0.89748   0.00000  Uiso   1.00
C248   C     0.83528   0.66923   0.87426   0.00000  Uiso   1.00
C249   C     0.81035   0.64380   0.82058   0.00000  Uiso   1.00
C250   C     0.82531   0.58301   0.80930   0.00000  Uiso   1.00
C251   C     0.79111   0.72971   0.95712   0.00000  Uiso   1.00
C252   C     0.72902   0.75512   0.97311   0.00000  Uiso   1.00
C253   C     0.70678   0.74524   0.03158   0.00000  Uiso   1.00
H254   H     0.92587   0.64555   0.00291   0.00000  Uiso   1.00
H255   H     0.03251   0.71970   0.99622   0.00000  Uiso   1.00
H256   H     0.91859   0.54804   0.93573   0.00000  Uiso   1.00
H257   H     0.83728   0.65934   0.08823   0.00000  Uiso   1.00
H258   H     0.13376   0.81693   0.97072   0.00000  Uiso   1.00
H259   H     0.89354   0.45496   0.84317   0.00000  Uiso   1.00
H260   H     0.72207   0.68966   0.16475   0.00000  Uiso   1.00
H261   H     0.79501   0.76133   0.86372   0.00000  Uiso   1.00
H262   H     0.89446   0.84184   0.84939   0.00000  Uiso   1.00
H263   H     0.78055   0.67018   0.78890   0.00000  Uiso   1.00
H264   H     0.69923   0.78148   0.94140   0.00000  Uiso   1.00
H265   H     0.02172   0.91606   0.85155   0.00000  Uiso   1.00
H266   H     0.78149   0.55409   0.72400   0.00000  Uiso   1.00
H267   H     0.61003   0.78879   0.04558   0.00000  Uiso   1.00
O268   O     0.14553   0.91736   0.90420   0.00000  Uiso   1.00
O269   O     0.83036   0.44246   0.73688   0.00000  Uiso   1.00
O270   O     0.60541   0.75039   0.15878   0.00000  Uiso   1.00
N271   N     0.09374   0.82922   0.94465   0.00000  Uiso   1.00
N272   N     0.86915   0.49080   0.82540   0.00000  Uiso   1.00
N273   N     0.70884   0.71021   0.12604   0.00000  Uiso   1.00
N274   N     0.03345   0.88256   0.88052   0.00000  Uiso   1.00
N275   N     0.80886   0.54414   0.76127   0.00000  Uiso   1.00
N276   N     0.64855   0.76356   0.06192   0.00000  Uiso   1.00
C277   C     0.41523   0.26667   0.35578   0.00000  Uiso   1.00
C278   C     0.41827   0.19698   0.35317   0.00000  Uiso   1.00
C279   C     0.41579   0.16139   0.30117   0.00000  Uiso   1.00
C280   C     0.41931   0.09841   0.30831   0.00000  Uiso   1.00
C281   C     0.42318   0.99421   0.29557   0.00000  Uiso   1.00
C282   C     0.48009   0.28878   0.38994   0.00000  Uiso   1.00
C283   C     0.52958   0.33040   0.36885   0.00000  Uiso   1.00
C284   C     0.58513   0.34470   0.40694   0.00000  Uiso   1.00
C285   C     0.68496   0.38307   0.45130   0.00000  Uiso   1.00
C286   C     0.35464   0.28095   0.39630   0.00000  Uiso   1.00
C287   C     0.29865   0.31600   0.38056   0.00000  Uiso   1.00
C288   C     0.24860   0.32372   0.42402   0.00000  Uiso   1.00
C289   C     0.15364   0.34993   0.47824   0.00000  Uiso   1.00
C290   C     0.42589   0.21808   0.46094   0.00000  Uiso   1.00
C291   C     0.42407   0.17059   0.41029   0.00000  Uiso   1.00
C292   C     0.42759   0.10764   0.41752   0.00000  Uiso   1.00
C293   C     0.42511   0.07197   0.36553   0.00000  Uiso   1.00
C294   C     0.48589   0.26240   0.44706   0.00000  Uiso   1.00
C295   C     0.54138   0.27664   0.48519   0.00000  Uiso   1.00
C296   C     0.59094   0.31826   0.46417   0.00000  Uiso   1.00
C297   C     0.36043   0.25456   0.45342   0.00000  Uiso   1.00
C298   C     0.31046   0.26224   0.49691   0.00000  Uiso   1.00
C299   C     0.25440   0.29728   0.48124   0.00000  Uiso   1.00
H300   H     0.41072   0.28722   0.31131   0.00000  Uiso   1.00
H301   H     0.41131   0.18183   0.25697   0.00000  Uiso   1.00
H302   H     0.52507   0.35081   0.32465   0.00000  Uiso   1.00
H303   H     0.29419   0.33641   0.33636   0.00000  Uiso   1.00
H304   H     0.41454   0.05336   0.22192   0.00000  Uiso   1.00
H305   H     0.65441   0.40968   0.36461   0.00000  Uiso   1.00
H306   H     0.16754   0.37931   0.38931   0.00000  Uiso   1.00
H307   H     0.43041   0.19754   0.50541   0.00000  Uiso   1.00
H308   H     0.43207   0.08723   0.46172   0.00000  Uiso   1.00
H309   H     0.54584   0.25621   0.52939   0.00000  Uiso   1.00
H310   H     0.31496   0.24181   0.54110   0.00000  Uiso   1.00
H311   H     0.43140   0.97658   0.38810   0.00000  Uiso   1.00
H312   H     0.67127   0.33290   0.53080   0.00000  Uiso   1.00
H313   H     0.18440   0.30253   0.55549   0.00000  Uiso   1.00
O314   O     0.42373   0.94403   0.27277   0.00000  Uiso   1.00
O315   O     0.73843   0.41152   0.45998   0.00000  Uiso   1.00
O316   O     0.09967   0.37167   0.49237   0.00000  Uiso   1.00
N317   N     0.41826   0.05043   0.26703   0.00000  Uiso   1.00
N318   N     0.64254   0.38356   0.40043   0.00000  Uiso   1.00
N319   N     0.18736   0.35518   0.42352   0.00000  Uiso   1.00
N320   N     0.42733   0.00911   0.35645   0.00000  Uiso   1.00
N321   N     0.65161   0.34224   0.48985   0.00000  Uiso   1.00
N322   N     0.19643   0.31387   0.51294   0.00000  Uiso   1.00
C323   C     0.31119   0.70013   0.13963   0.00000  Uiso   1.00
C324   C     0.32056   0.67261   0.07709   0.00000  Uiso   1.00
C325   C     0.26822   0.64806   0.04032   0.00000  Uiso   1.00
C326   C     0.28740   0.62518   0.98470   0.00000  Uiso   1.00
C327   C     0.29144   0.58223   0.89033   0.00000  Uiso   1.00
C328   C     0.34214   0.76510   0.13710   0.00000  Uiso   1.00
C329   C     0.30794   0.81831   0.15080   0.00000  Uiso   1.00
C330   C     0.34529   0.87328   0.14570   0.00000  Uiso   1.00
C331   C     0.38285   0.97392   0.14455   0.00000  Uiso   1.00
C332   C     0.35799   0.66474   0.18181   0.00000  Uiso   1.00
C333   C     0.33713   0.63357   0.23312   0.00000  Uiso   1.00
C334   C     0.38782   0.60405   0.26567   0.00000  Uiso   1.00
C335   C     0.44998   0.54886   0.33393   0.00000  Uiso   1.00
C336   C     0.43832   0.70314   0.10622   0.00000  Uiso   1.00
C337   C     0.38961   0.67425   0.05894   0.00000  Uiso   1.00
C338   C     0.40887   0.65139   0.00335   0.00000  Uiso   1.00
C339   C     0.35657   0.62681   0.96651   0.00000  Uiso   1.00
C340   C     0.41119   0.76674   0.11895   0.00000  Uiso   1.00
C341   C     0.44859   0.82164   0.11383   0.00000  Uiso   1.00
C342   C     0.41446   0.87492   0.12752   0.00000  Uiso   1.00
C343   C     0.42704   0.66637   0.16366   0.00000  Uiso   1.00
C344   C     0.47778   0.63690   0.19614   0.00000  Uiso   1.00
C345   C     0.45699   0.60569   0.24749   0.00000  Uiso   1.00
H346   H     0.25743   0.69886   0.15376   0.00000  Uiso   1.00
H347   H     0.21479   0.64681   0.05438   0.00000  Uiso   1.00
H348   H     0.25451   0.81703   0.16485   0.00000  Uiso   1.00
H349   H     0.28369   0.63232   0.24715   0.00000  Uiso   1.00
H350   H     0.19797   0.58985   0.93619   0.00000  Uiso   1.00
H351   H     0.28172   0.94877   0.16914   0.00000  Uiso   1.00
H352   H     0.34324   0.55926   0.34268   0.00000  Uiso   1.00
H353   H     0.49208   0.70441   0.09209   0.00000  Uiso   1.00
H354   H     0.46231   0.65266   0.98932   0.00000  Uiso   1.00
H355   H     0.50203   0.82288   0.09979   0.00000  Uiso   1.00
H356   H     0.53120   0.63817   0.18209   0.00000  Uiso   1.00
H357   H     0.39886   0.59460   0.88338   0.00000  Uiso   1.00
H358   H     0.48261   0.95352   0.11633   0.00000  Uiso   1.00
H359   H     0.54414   0.56401   0.28987   0.00000  Uiso   1.00
O360   O     0.27460   0.55810   0.84328   0.00000  Uiso   1.00
O361   O     0.38448   0.02898   0.14892   0.00000  Uiso   1.00
O362   O     0.46520   0.51796   0.37660   0.00000  Uiso   1.00
N363   N     0.24933   0.59806   0.93787   0.00000  Uiso   1.00
N364   N     0.32763   0.93362   0.15565   0.00000  Uiso   1.00
N365   N     0.38516   0.56948   0.31791   0.00000  Uiso   1.00
N366   N     0.35743   0.60061   0.90945   0.00000  Uiso   1.00
N367   N     0.43573   0.93618   0.12724   0.00000  Uiso   1.00
N368   N     0.49326   0.57204   0.28949   0.00000  Uiso   1.00
C369   C     0.97835   0.60754   0.60310   0.00000  Uiso   1.00
C370   C     0.90096   0.59282   0.59933   0.00000  Uiso   1.00
C371   C     0.87018   0.54176   0.57146   0.00000  Uiso   1.00
C372   C     0.79859   0.53662   0.57294   0.00000  Uiso   1.00
C373   C     0.68440   0.50701   0.56281   0.00000  Uiso   1.00
C374   C     0.99577   0.61472   0.66996   0.00000  Uiso   1.00
C375   C     0.04472   0.58207   0.70146   0.00000  Uiso   1.00
C376   C     0.05295   0.59536   0.76238   0.00000  Uiso   1.00
C377   C     0.08600   0.59976   0.86189   0.00000  Uiso   1.00
C378   C     0.98871   0.67104   0.57577   0.00000  Uiso   1.00
C379   C     0.03174   0.68576   0.52808   0.00000  Uiso   1.00
C380   C     0.03404   0.74648   0.50971   0.00000  Uiso   1.00
C381   C     0.05612   0.83834   0.46297   0.00000  Uiso   1.00
C382   C     0.90595   0.68921   0.65528   0.00000  Uiso   1.00
C383   C     0.86163   0.63718   0.62768   0.00000  Uiso   1.00
C384   C     0.79007   0.63212   0.62919   0.00000  Uiso   1.00
C385   C     0.75919   0.58106   0.60133   0.00000  Uiso   1.00
C386   C     0.95644   0.65907   0.69830   0.00000  Uiso   1.00
C387   C     0.96461   0.67242   0.75919   0.00000  Uiso   1.00
C388   C     0.01356   0.63980   0.79078   0.00000  Uiso   1.00
C389   C     0.94938   0.71540   0.60411   0.00000  Uiso   1.00
C390   C     0.95162   0.77611   0.58581   0.00000  Uiso   1.00
C391   C     0.99464   0.79092   0.53810   0.00000  Uiso   1.00
H392   H     0.00897   0.57301   0.58104   0.00000  Uiso   1.00
H393   H     0.90063   0.50744   0.54954   0.00000  Uiso   1.00
H394   H     0.07515   0.54775   0.67952   0.00000  Uiso   1.00
H395   H     0.06216   0.65142   0.50616   0.00000  Uiso   1.00
H396   H     0.76318   0.45430   0.52714   0.00000  Uiso   1.00
H397   H     0.13117   0.53930   0.80119   0.00000  Uiso   1.00
H398   H     0.10379   0.75792   0.43564   0.00000  Uiso   1.00
H399   H     0.87533   0.72374   0.67734   0.00000  Uiso   1.00
H400   H     0.75965   0.66645   0.65113   0.00000  Uiso   1.00
H401   H     0.93417   0.70675   0.78111   0.00000  Uiso   1.00
H402   H     0.92118   0.81043   0.60775   0.00000  Uiso   1.00
H403   H     0.64875   0.58336   0.60959   0.00000  Uiso   1.00
H404   H     0.01675   0.66836   0.88365   0.00000  Uiso   1.00
H405   H     0.98937   0.88698   0.51810   0.00000  Uiso   1.00
O406   O     0.63228   0.47841   0.54940   0.00000  Uiso   1.00
O407   O     0.11509   0.58993   0.90894   0.00000  Uiso   1.00
O408   O     0.07916   0.87676   0.42935   0.00000  Uiso   1.00
N409   N     0.75212   0.49255   0.55013   0.00000  Uiso   1.00
N410   N     0.09617   0.57200   0.80636   0.00000  Uiso   1.00
N411   N     0.07058   0.77640   0.46461   0.00000  Uiso   1.00
N412   N     0.69055   0.56199   0.59450   0.00000  Uiso   1.00
N413   N     0.03460   0.64145   0.85072   0.00000  Uiso   1.00
N414   N     0.00901   0.84585   0.50898   0.00000  Uiso   1.00
C415   C     0.12617   0.01413   0.70115   0.00000  Uiso   1.00
C416   C     0.11134   0.06290   0.65420   0.00000  Uiso   1.00
C417   C     0.14300   0.06868   0.59867   0.00000  Uiso   1.00
C418   C     0.12225   0.11634   0.56216   0.00000  Uiso   1.00
C419   C     0.10694   0.18594   0.48647   0.00000  Uiso   1.00
C420   C     0.14629   0.04878   0.75883   0.00000  Uiso   1.00
C421   C     0.20735   0.04267   0.79128   0.00000  Uiso   1.00
C422   C     0.21601   0.07845   0.84285   0.00000  Uiso   1.00
C423   C     0.25495   0.12608   0.92963   0.00000  Uiso   1.00
C424   C     0.05704   0.98170   0.71365   0.00000  Uiso   1.00
C425   C     0.04305   0.91919   0.70812   0.00000  Uiso   1.00
C426   C     0.97658   0.89848   0.72167   0.00000  Uiso   1.00
C427   C     0.87694   0.84196   0.73829   0.00000  Uiso   1.00
C428   C     0.03300   0.08851   0.73505   0.00000  Uiso   1.00
C429   C     0.06073   0.10330   0.67261   0.00000  Uiso   1.00
C430   C     0.03993   0.15097   0.63618   0.00000  Uiso   1.00
C431   C     0.07155   0.15681   0.58060   0.00000  Uiso   1.00
C432   C     0.09569   0.08918   0.77724   0.00000  Uiso   1.00
C433   C     0.10427   0.12497   0.82878   0.00000  Uiso   1.00
C434   C     0.16532   0.11892   0.86130   0.00000  Uiso   1.00
C435   C     0.00644   0.02210   0.73206   0.00000  Uiso   1.00
C436   C     0.93997   0.00148   0.74562   0.00000  Uiso   1.00
C437   C     0.92588   0.93895   0.74012   0.00000  Uiso   1.00
H438   H     0.16557   0.98268   0.68682   0.00000  Uiso   1.00
H439   H     0.18217   0.03740   0.58444   0.00000  Uiso   1.00
H440   H     0.24649   0.01140   0.77702   0.00000  Uiso   1.00
H441   H     0.08223   0.88794   0.69387   0.00000  Uiso   1.00
H442   H     0.17827   0.11591   0.47907   0.00000  Uiso   1.00
H443   H     0.31389   0.06106   0.88514   0.00000  Uiso   1.00
H444   H     0.96751   0.80071   0.70981   0.00000  Uiso   1.00
H445   H     0.99361   0.11997   0.74938   0.00000  Uiso   1.00
H446   H     0.00076   0.18223   0.65044   0.00000  Uiso   1.00
H447   H     0.06509   0.15622   0.84302   0.00000  Uiso   1.00
H448   H     0.90083   0.03276   0.75987   0.00000  Uiso   1.00
H449   H     0.03104   0.23345   0.53263   0.00000  Uiso   1.00
H450   H     0.16666   0.17860   0.93871   0.00000  Uiso   1.00
H451   H     0.82027   0.91826   0.76338   0.00000  Uiso   1.00
O452   O     0.11248   0.21317   0.43964   0.00000  Uiso   1.00
O453   O     0.29041   0.14120   0.97240   0.00000  Uiso   1.00
O454   O     0.83596   0.79963   0.74237   0.00000  Uiso   1.00
N455   N     0.14263   0.13502   0.50525   0.00000  Uiso   1.00
N456   N     0.26943   0.08375   0.88490   0.00000  Uiso   1.00
N457   N     0.94559   0.84034   0.72100   0.00000  Uiso   1.00
N458   N     0.06340   0.19827   0.53407   0.00000  Uiso   1.00
N459   N     0.19021   0.14700   0.91372   0.00000  Uiso   1.00
N460   N     0.86637   0.90359   0.74982   0.00000  Uiso   1.00
C461   C     0.96283   0.81201   0.21103   0.00000  Uiso   1.00
C462   C     0.99858   0.75387   0.19179   0.00000  Uiso   1.00
C463   C     0.98887   0.69636   0.21722   0.00000  Uiso   1.00
C464   C     0.02643   0.64903   0.19322   0.00000  Uiso   1.00
C465   C     0.07503   0.55725   0.17062   0.00000  Uiso   1.00
C466   C     0.02042   0.85881   0.22644   0.00000  Uiso   1.00
C467   C     0.02907   0.88955   0.28100   0.00000  Uiso   1.00
C468   C     0.08502   0.93056   0.28617   0.00000  Uiso   1.00
C469   C     0.16750   0.00174   0.31734   0.00000  Uiso   1.00
C470   C     0.92703   0.83583   0.15468   0.00000  Uiso   1.00
C471   C     0.85716   0.84727   0.14892   0.00000  Uiso   1.00
C472   C     0.83448   0.86895   0.09367   0.00000  Uiso   1.00
C473   C     0.77197   0.90445   0.01344   0.00000  Uiso   1.00
C474   C     0.04680   0.83021   0.12319   0.00000  Uiso   1.00
C475   C     0.04419   0.76376   0.14407   0.00000  Uiso   1.00
C476   C     0.08178   0.71650   0.12003   0.00000  Uiso   1.00
C477   C     0.07212   0.65893   0.14542   0.00000  Uiso   1.00
C478   C     0.06603   0.86870   0.17873   0.00000  Uiso   1.00
C479   C     0.12198   0.90968   0.18381   0.00000  Uiso   1.00
C480   C     0.13071   0.94046   0.23837   0.00000  Uiso   1.00
C481   C     0.97264   0.84572   0.10697   0.00000  Uiso   1.00
C482   C     0.95007   0.86740   0.05172   0.00000  Uiso   1.00
C483   C     0.88018   0.87885   0.04587   0.00000  Uiso   1.00
H484   H     0.92732   0.80432   0.24818   0.00000  Uiso   1.00
H485   H     0.95357   0.68873   0.25415   0.00000  Uiso   1.00
H486   H     0.99376   0.88189   0.31791   0.00000  Uiso   1.00
H487   H     0.82188   0.83961   0.18585   0.00000  Uiso   1.00
H488   H     0.00281   0.56494   0.23973   0.00000  Uiso   1.00
H489   H     0.08754   0.97224   0.37418   0.00000  Uiso   1.00
H490   H     0.72510   0.88309   0.09570   0.00000  Uiso   1.00
H491   H     0.08231   0.83791   0.08604   0.00000  Uiso   1.00
H492   H     0.11707   0.72416   0.08311   0.00000  Uiso   1.00
H493   H     0.15726   0.91732   0.14688   0.00000  Uiso   1.00
H494   H     0.98538   0.87504   0.01481   0.00000  Uiso   1.00
H495   H     0.13552   0.59370   0.10091   0.00000  Uiso   1.00
H496   H     0.22024   0.00100   0.23536   0.00000  Uiso   1.00
H497   H     0.85780   0.91185   0.95688   0.00000  Uiso   1.00
O498   O     0.08925   0.50389   0.17133   0.00000  Uiso   1.00
O499   O     0.20040   0.03826   0.34772   0.00000  Uiso   1.00
O500   O     0.72488   0.92129   0.98236   0.00000  Uiso   1.00
N501   N     0.02926   0.58732   0.20746   0.00000  Uiso   1.00
N502   N     0.10849   0.96811   0.33316   0.00000  Uiso   1.00
N503   N     0.76963   0.88478   0.07281   0.00000  Uiso   1.00
N504   N     0.10067   0.60279   0.13276   0.00000  Uiso   1.00
N505   N     0.17989   0.98359   0.25846   0.00000  Uiso   1.00
N506   N     0.84104   0.90025   0.99811   0.00000  Uiso   1.00
C507   C     0.63831   0.25107   0.85238   0.00000  Uiso   1.00
C508   C     0.56394   0.25201   0.87415   0.00000  Uiso   1.00
C509   C     0.50773   0.27211   0.84123   0.00000  Uiso   1.00
C510   C     0.44394   0.26929   0.86917   0.00000  Uiso   1.00
C511   C     0.32957   0.27415   0.89406   0.00000  Uiso   1.00
C512   C     0.68120   0.28830   0.89836   0.00000  Uiso   1.00
C513   C     0.72358   0.33889   0.88579   0.00000  Uiso   1.00
C514   C     0.75850   0.36662   0.93411   0.00000  Uiso   1.00
C515   C     0.82622   0.42778   0.99657   0.00000  Uiso   1.00
C516   C     0.66066   0.18499   0.85875   0.00000  Uiso   1.00
C517   C     0.68579   0.14873   0.81287   0.00000  Uiso   1.00
C518   C     0.70344   0.08949   0.82784   0.00000  Uiso   1.00
C519   C     0.73928   0.99026   0.82879   0.00000  Uiso   1.00
C520   C     0.62500   0.21034   0.96054   0.00000  Uiso   1.00
C521   C     0.55672   0.22989   0.93291   0.00000  Uiso   1.00
C522   C     0.49300   0.22704   0.96090   0.00000  Uiso   1.00
C523   C     0.43669   0.24713   0.92803   0.00000  Uiso   1.00
C524   C     0.67397   0.26618   0.95711   0.00000  Uiso   1.00
C525   C     0.70885   0.29383   0.00546   0.00000  Uiso   1.00
C526   C     0.75126   0.34446   0.99297   0.00000  Uiso   1.00
C527   C     0.65343   0.16287   0.91750   0.00000  Uiso   1.00
C528   C     0.67106   0.10367   0.93254   0.00000  Uiso   1.00
C529   C     0.69620   0.06732   0.88669   0.00000  Uiso   1.00
H530   H     0.64394   0.26830   0.80664   0.00000  Uiso   1.00
H531   H     0.51334   0.28923   0.79577   0.00000  Uiso   1.00
H532   H     0.72916   0.35600   0.84032   0.00000  Uiso   1.00
H533   H     0.69138   0.16587   0.76741   0.00000  Uiso   1.00
H534   H     0.36537   0.30270   0.80963   0.00000  Uiso   1.00
H535   H     0.82045   0.44348   0.90357   0.00000  Uiso   1.00
H536   H     0.74078   0.04255   0.74982   0.00000  Uiso   1.00
H537   H     0.61937   0.19312   0.00628   0.00000  Uiso   1.00
H538   H     0.48742   0.20992   0.00637   0.00000  Uiso   1.00
H539   H     0.70324   0.27669   0.05092   0.00000  Uiso   1.00
H540   H     0.66546   0.08656   0.97801   0.00000  Uiso   1.00
H541   H     0.34433   0.23834   0.98056   0.00000  Uiso   1.00
H542   H     0.79942   0.37911   0.07450   0.00000  Uiso   1.00
H543   H     0.71974   0.97819   0.92075   0.00000  Uiso   1.00
O544   O     0.26849   0.28295   0.89156   0.00000  Uiso   1.00
O545   O     0.86556   0.46763   0.01480   0.00000  Uiso   1.00
O546   O     0.76103   0.94163   0.81308   0.00000  Uiso   1.00
N547   N     0.37852   0.28523   0.84985   0.00000  Uiso   1.00
N548   N     0.80399   0.41686   0.93767   0.00000  Uiso   1.00
N549   N     0.72952   0.04203   0.79393   0.00000  Uiso   1.00
N550   N     0.36720   0.25060   0.94182   0.00000  Uiso   1.00
N551   N     0.79267   0.38222   0.02965   0.00000  Uiso   1.00
N552   N     0.71820   0.00740   0.88591   0.00000  Uiso   1.00
