data_job_01881
_audit_creation_date              2018-12-19
_audit_creation_method            'Materials Studio'
_symmetry_space_group_name_H-M    'P1'
_symmetry_Int_Tables_number       1
_symmetry_cell_setting            triclinic
loop_
_symmetry_equiv_pos_as_xyz
  x,y,z
_cell_length_a                    23.8307
_cell_length_b                    13.6041
_cell_length_c                    37.9117
_cell_angle_alpha                 90.0000
_cell_angle_beta                  90.0000
_cell_angle_gamma                 90.0000
loop_
_atom_site_label
_atom_site_type_symbol
_atom_site_fract_x
_atom_site_fract_y
_atom_site_fract_z
_atom_site_U_iso_or_equiv
_atom_site_adp_type
_atom_site_occupancy
C1     C     0.24999   0.95929   0.69443   0.00000  Uiso   1.00
C2     C     0.25000   0.96488   0.65426   0.00000  Uiso   1.00
C3     C     0.25001   0.88514   0.63142   0.00000  Uiso   1.00
C4     C     0.25003   0.90568   0.59555   0.00000  Uiso   1.00
C5     C     0.25007   0.89963   0.53508   0.00000  Uiso   1.00
C6     C     0.30111   0.01757   0.70660   0.00000  Uiso   1.00
C7     C     0.34409   0.98215   0.72778   0.00000  Uiso   1.00
C8     C     0.38712   0.04705   0.73598   0.00000  Uiso   1.00
C9     C     0.46649   0.12283   0.75679   0.00000  Uiso   1.00
C10    C     0.19888   0.01757   0.70660   0.00000  Uiso   1.00
C11    C     0.15591   0.98215   0.72779   0.00000  Uiso   1.00
C12    C     0.11288   0.04705   0.73599   0.00000  Uiso   1.00
C13    C     0.03351   0.12282   0.75680   0.00000  Uiso   1.00
C14    C     0.24999   0.13754   0.67132   0.00000  Uiso   1.00
C15    C     0.25000   0.06170   0.64171   0.00000  Uiso   1.00
C16    C     0.25001   0.08236   0.60586   0.00000  Uiso   1.00
C17    C     0.25003   0.00267   0.58298   0.00000  Uiso   1.00
C18    C     0.30111   0.11439   0.69405   0.00000  Uiso   1.00
C19    C     0.34409   0.17936   0.70222   0.00000  Uiso   1.00
C20    C     0.38712   0.14404   0.72340   0.00000  Uiso   1.00
C21    C     0.19888   0.11439   0.69405   0.00000  Uiso   1.00
C22    C     0.15591   0.17936   0.70222   0.00000  Uiso   1.00
C23    C     0.11288   0.14405   0.72341   0.00000  Uiso   1.00
H24    H     0.25000   0.88391   0.70420   0.00000  Uiso   1.00
H25    H     0.25002   0.81023   0.64114   0.00000  Uiso   1.00
H26    H     0.34407   0.90722   0.73749   0.00000  Uiso   1.00
H27    H     0.15592   0.90722   0.73749   0.00000  Uiso   1.00
H28    H     0.25007   0.77123   0.56570   0.00000  Uiso   1.00
H29    H     0.44838   0.97576   0.76886   0.00000  Uiso   1.00
H30    H     0.05162   0.97575   0.76887   0.00000  Uiso   1.00
H31    H     0.25000   0.21292   0.66155   0.00000  Uiso   1.00
H32    H     0.25002   0.15729   0.59616   0.00000  Uiso   1.00
H33    H     0.34407   0.25428   0.69250   0.00000  Uiso   1.00
H34    H     0.15592   0.25428   0.69250   0.00000  Uiso   1.00
H35    H     0.25007   0.05292   0.52919   0.00000  Uiso   1.00
H36    H     0.44838   0.25745   0.73235   0.00000  Uiso   1.00
H37    H     0.05162   0.25744   0.73235   0.00000  Uiso   1.00
O38    O     0.25010   0.86954   0.50519   0.00000  Uiso   1.00
O39    O     0.51027   0.13788   0.77174   0.00000  Uiso   1.00
O40    O     0.98973   0.13787   0.77174   0.00000  Uiso   1.00
N41    N     0.25005   0.84516   0.56608   0.00000  Uiso   1.00
N42    N     0.43546   0.03638   0.75602   0.00000  Uiso   1.00
N43    N     0.06454   0.03638   0.75603   0.00000  Uiso   1.00
N44    N     0.25005   0.99674   0.54643   0.00000  Uiso   1.00
N45    N     0.43546   0.18795   0.73637   0.00000  Uiso   1.00
N46    N     0.06454   0.18795   0.73639   0.00000  Uiso   1.00
C47    C     0.74999   0.45929   0.19443   0.00000  Uiso   1.00
C48    C     0.75000   0.46488   0.15426   0.00000  Uiso   1.00
C49    C     0.75001   0.38514   0.13142   0.00000  Uiso   1.00
C50    C     0.75003   0.40568   0.09555   0.00000  Uiso   1.00
C51    C     0.75007   0.39963   0.03508   0.00000  Uiso   1.00
C52    C     0.80111   0.51757   0.20660   0.00000  Uiso   1.00
C53    C     0.84409   0.48215   0.22778   0.00000  Uiso   1.00
C54    C     0.88712   0.54705   0.23598   0.00000  Uiso   1.00
C55    C     0.96649   0.62283   0.25679   0.00000  Uiso   1.00
C56    C     0.69888   0.51757   0.20660   0.00000  Uiso   1.00
C57    C     0.65591   0.48215   0.22779   0.00000  Uiso   1.00
C58    C     0.61288   0.54705   0.23599   0.00000  Uiso   1.00
C59    C     0.53351   0.62282   0.25680   0.00000  Uiso   1.00
C60    C     0.74999   0.63754   0.17132   0.00000  Uiso   1.00
C61    C     0.75000   0.56170   0.14171   0.00000  Uiso   1.00
C62    C     0.75001   0.58236   0.10586   0.00000  Uiso   1.00
C63    C     0.75003   0.50267   0.08298   0.00000  Uiso   1.00
C64    C     0.80111   0.61439   0.19405   0.00000  Uiso   1.00
C65    C     0.84409   0.67936   0.20222   0.00000  Uiso   1.00
C66    C     0.88712   0.64404   0.22340   0.00000  Uiso   1.00
C67    C     0.69888   0.61439   0.19405   0.00000  Uiso   1.00
C68    C     0.65591   0.67936   0.20222   0.00000  Uiso   1.00
C69    C     0.61288   0.64405   0.22341   0.00000  Uiso   1.00
H70    H     0.75000   0.38391   0.20420   0.00000  Uiso   1.00
H71    H     0.75002   0.31023   0.14114   0.00000  Uiso   1.00
H72    H     0.84407   0.40722   0.23749   0.00000  Uiso   1.00
H73    H     0.65592   0.40722   0.23749   0.00000  Uiso   1.00
H74    H     0.75007   0.27123   0.06570   0.00000  Uiso   1.00
H75    H     0.94838   0.47576   0.26886   0.00000  Uiso   1.00
H76    H     0.55162   0.47575   0.26887   0.00000  Uiso   1.00
H77    H     0.75000   0.71292   0.16155   0.00000  Uiso   1.00
H78    H     0.75002   0.65729   0.09616   0.00000  Uiso   1.00
H79    H     0.84407   0.75428   0.19250   0.00000  Uiso   1.00
H80    H     0.65592   0.75428   0.19250   0.00000  Uiso   1.00
H81    H     0.75007   0.55292   0.02919   0.00000  Uiso   1.00
H82    H     0.94838   0.75745   0.23235   0.00000  Uiso   1.00
H83    H     0.55162   0.75744   0.23235   0.00000  Uiso   1.00
O84    O     0.75010   0.36954   0.00519   0.00000  Uiso   1.00
O85    O     0.01027   0.63788   0.27174   0.00000  Uiso   1.00
O86    O     0.48973   0.63787   0.27174   0.00000  Uiso   1.00
N87    N     0.75005   0.34516   0.06608   0.00000  Uiso   1.00
N88    N     0.93546   0.53638   0.25602   0.00000  Uiso   1.00
N89    N     0.56454   0.53638   0.25603   0.00000  Uiso   1.00
N90    N     0.75005   0.49674   0.04643   0.00000  Uiso   1.00
N91    N     0.93546   0.68795   0.23637   0.00000  Uiso   1.00
N92    N     0.56454   0.68795   0.23639   0.00000  Uiso   1.00
C93    C     0.75001   0.04071   0.69443   0.00000  Uiso   1.00
C94    C     0.75000   0.03512   0.65426   0.00000  Uiso   1.00
C95    C     0.74999   0.11486   0.63142   0.00000  Uiso   1.00
C96    C     0.74997   0.09432   0.59555   0.00000  Uiso   1.00
C97    C     0.74993   0.10037   0.53508   0.00000  Uiso   1.00
C98    C     0.69889   0.98243   0.70660   0.00000  Uiso   1.00
C99    C     0.65591   0.01785   0.72778   0.00000  Uiso   1.00
C100   C     0.61288   0.95295   0.73598   0.00000  Uiso   1.00
C101   C     0.53351   0.87717   0.75679   0.00000  Uiso   1.00
C102   C     0.80112   0.98243   0.70660   0.00000  Uiso   1.00
C103   C     0.84409   0.01785   0.72779   0.00000  Uiso   1.00
C104   C     0.88712   0.95295   0.73599   0.00000  Uiso   1.00
C105   C     0.96649   0.87718   0.75680   0.00000  Uiso   1.00
C106   C     0.75001   0.86246   0.67132   0.00000  Uiso   1.00
C107   C     0.75000   0.93830   0.64171   0.00000  Uiso   1.00
C108   C     0.74999   0.91764   0.60586   0.00000  Uiso   1.00
C109   C     0.74997   0.99733   0.58298   0.00000  Uiso   1.00
C110   C     0.69889   0.88561   0.69405   0.00000  Uiso   1.00
C111   C     0.65591   0.82064   0.70222   0.00000  Uiso   1.00
C112   C     0.61288   0.85596   0.72340   0.00000  Uiso   1.00
C113   C     0.80112   0.88561   0.69405   0.00000  Uiso   1.00
C114   C     0.84409   0.82064   0.70222   0.00000  Uiso   1.00
C115   C     0.88712   0.85595   0.72341   0.00000  Uiso   1.00
H116   H     0.75000   0.11609   0.70420   0.00000  Uiso   1.00
H117   H     0.74998   0.18977   0.64114   0.00000  Uiso   1.00
H118   H     0.65593   0.09278   0.73749   0.00000  Uiso   1.00
H119   H     0.84408   0.09278   0.73749   0.00000  Uiso   1.00
H120   H     0.74993   0.22877   0.56570   0.00000  Uiso   1.00
H121   H     0.55162   0.02424   0.76886   0.00000  Uiso   1.00
H122   H     0.94838   0.02425   0.76887   0.00000  Uiso   1.00
H123   H     0.75000   0.78708   0.66155   0.00000  Uiso   1.00
H124   H     0.74998   0.84271   0.59616   0.00000  Uiso   1.00
H125   H     0.65593   0.74572   0.69250   0.00000  Uiso   1.00
H126   H     0.84408   0.74572   0.69250   0.00000  Uiso   1.00
H127   H     0.74993   0.94708   0.52919   0.00000  Uiso   1.00
H128   H     0.55162   0.74255   0.73235   0.00000  Uiso   1.00
H129   H     0.94838   0.74256   0.73235   0.00000  Uiso   1.00
O130   O     0.74990   0.13046   0.50519   0.00000  Uiso   1.00
O131   O     0.48973   0.86212   0.77174   0.00000  Uiso   1.00
O132   O     0.01027   0.86213   0.77174   0.00000  Uiso   1.00
N133   N     0.74995   0.15484   0.56608   0.00000  Uiso   1.00
N134   N     0.56454   0.96362   0.75602   0.00000  Uiso   1.00
N135   N     0.93546   0.96362   0.75603   0.00000  Uiso   1.00
N136   N     0.74995   0.00326   0.54643   0.00000  Uiso   1.00
N137   N     0.56454   0.81205   0.73637   0.00000  Uiso   1.00
N138   N     0.93546   0.81205   0.73639   0.00000  Uiso   1.00
C139   C     0.25001   0.54071   0.19443   0.00000  Uiso   1.00
C140   C     0.25000   0.53512   0.15426   0.00000  Uiso   1.00
C141   C     0.24999   0.61486   0.13142   0.00000  Uiso   1.00
C142   C     0.24997   0.59432   0.09555   0.00000  Uiso   1.00
C143   C     0.24993   0.60037   0.03508   0.00000  Uiso   1.00
C144   C     0.19889   0.48243   0.20660   0.00000  Uiso   1.00
C145   C     0.15591   0.51785   0.22778   0.00000  Uiso   1.00
C146   C     0.11288   0.45295   0.23598   0.00000  Uiso   1.00
C147   C     0.03351   0.37717   0.25679   0.00000  Uiso   1.00
C148   C     0.30112   0.48243   0.20660   0.00000  Uiso   1.00
C149   C     0.34409   0.51785   0.22779   0.00000  Uiso   1.00
C150   C     0.38712   0.45295   0.23599   0.00000  Uiso   1.00
C151   C     0.46649   0.37718   0.25680   0.00000  Uiso   1.00
C152   C     0.25001   0.36246   0.17132   0.00000  Uiso   1.00
C153   C     0.25000   0.43830   0.14171   0.00000  Uiso   1.00
C154   C     0.24999   0.41764   0.10586   0.00000  Uiso   1.00
C155   C     0.24997   0.49733   0.08298   0.00000  Uiso   1.00
C156   C     0.19889   0.38561   0.19405   0.00000  Uiso   1.00
C157   C     0.15591   0.32064   0.20222   0.00000  Uiso   1.00
C158   C     0.11288   0.35596   0.22340   0.00000  Uiso   1.00
C159   C     0.30112   0.38561   0.19405   0.00000  Uiso   1.00
C160   C     0.34409   0.32064   0.20222   0.00000  Uiso   1.00
C161   C     0.38712   0.35595   0.22341   0.00000  Uiso   1.00
H162   H     0.25000   0.61609   0.20420   0.00000  Uiso   1.00
H163   H     0.24998   0.68977   0.14114   0.00000  Uiso   1.00
H164   H     0.15593   0.59278   0.23749   0.00000  Uiso   1.00
H165   H     0.34408   0.59278   0.23749   0.00000  Uiso   1.00
H166   H     0.24993   0.72877   0.06570   0.00000  Uiso   1.00
H167   H     0.05162   0.52424   0.26886   0.00000  Uiso   1.00
H168   H     0.44838   0.52425   0.26887   0.00000  Uiso   1.00
H169   H     0.25000   0.28708   0.16155   0.00000  Uiso   1.00
H170   H     0.24998   0.34271   0.09616   0.00000  Uiso   1.00
H171   H     0.15593   0.24572   0.19250   0.00000  Uiso   1.00
H172   H     0.34408   0.24572   0.19250   0.00000  Uiso   1.00
H173   H     0.24993   0.44708   0.02919   0.00000  Uiso   1.00
H174   H     0.05162   0.24255   0.23235   0.00000  Uiso   1.00
H175   H     0.44838   0.24256   0.23235   0.00000  Uiso   1.00
O176   O     0.24990   0.63046   0.00519   0.00000  Uiso   1.00
O177   O     0.98973   0.36212   0.27174   0.00000  Uiso   1.00
O178   O     0.51027   0.36213   0.27174   0.00000  Uiso   1.00
N179   N     0.24995   0.65484   0.06608   0.00000  Uiso   1.00
N180   N     0.06454   0.46362   0.25602   0.00000  Uiso   1.00
N181   N     0.43546   0.46362   0.25603   0.00000  Uiso   1.00
N182   N     0.24995   0.50326   0.04643   0.00000  Uiso   1.00
N183   N     0.06454   0.31205   0.23637   0.00000  Uiso   1.00
N184   N     0.43546   0.31205   0.23639   0.00000  Uiso   1.00
C185   C     0.75001   0.95929   0.30557   0.00000  Uiso   1.00
C186   C     0.75000   0.96488   0.34574   0.00000  Uiso   1.00
C187   C     0.74999   0.88514   0.36858   0.00000  Uiso   1.00
C188   C     0.74997   0.90568   0.40445   0.00000  Uiso   1.00
C189   C     0.74993   0.89963   0.46492   0.00000  Uiso   1.00
C190   C     0.69889   0.01757   0.29340   0.00000  Uiso   1.00
C191   C     0.65591   0.98215   0.27222   0.00000  Uiso   1.00
C192   C     0.61288   0.04705   0.26402   0.00000  Uiso   1.00
C193   C     0.53351   0.12283   0.24321   0.00000  Uiso   1.00
C194   C     0.80112   0.01757   0.29340   0.00000  Uiso   1.00
C195   C     0.84409   0.98215   0.27221   0.00000  Uiso   1.00
C196   C     0.88712   0.04705   0.26401   0.00000  Uiso   1.00
C197   C     0.96649   0.12282   0.24320   0.00000  Uiso   1.00
C198   C     0.75001   0.13754   0.32868   0.00000  Uiso   1.00
C199   C     0.75000   0.06170   0.35829   0.00000  Uiso   1.00
C200   C     0.74999   0.08236   0.39414   0.00000  Uiso   1.00
C201   C     0.74997   0.00267   0.41702   0.00000  Uiso   1.00
C202   C     0.69889   0.11439   0.30595   0.00000  Uiso   1.00
C203   C     0.65591   0.17936   0.29778   0.00000  Uiso   1.00
C204   C     0.61288   0.14404   0.27660   0.00000  Uiso   1.00
C205   C     0.80112   0.11439   0.30595   0.00000  Uiso   1.00
C206   C     0.84409   0.17936   0.29778   0.00000  Uiso   1.00
C207   C     0.88712   0.14405   0.27659   0.00000  Uiso   1.00
H208   H     0.75000   0.88391   0.29580   0.00000  Uiso   1.00
H209   H     0.74998   0.81023   0.35886   0.00000  Uiso   1.00
H210   H     0.65593   0.90722   0.26251   0.00000  Uiso   1.00
H211   H     0.84408   0.90722   0.26251   0.00000  Uiso   1.00
H212   H     0.74993   0.77123   0.43430   0.00000  Uiso   1.00
H213   H     0.55162   0.97576   0.23114   0.00000  Uiso   1.00
H214   H     0.94838   0.97575   0.23113   0.00000  Uiso   1.00
H215   H     0.75000   0.21292   0.33845   0.00000  Uiso   1.00
H216   H     0.74998   0.15729   0.40384   0.00000  Uiso   1.00
H217   H     0.65593   0.25428   0.30750   0.00000  Uiso   1.00
H218   H     0.84408   0.25428   0.30750   0.00000  Uiso   1.00
H219   H     0.74993   0.05292   0.47081   0.00000  Uiso   1.00
H220   H     0.55162   0.25745   0.26765   0.00000  Uiso   1.00
H221   H     0.94838   0.25744   0.26765   0.00000  Uiso   1.00
O222   O     0.74990   0.86954   0.49481   0.00000  Uiso   1.00
O223   O     0.48973   0.13788   0.22826   0.00000  Uiso   1.00
O224   O     0.01027   0.13787   0.22826   0.00000  Uiso   1.00
N225   N     0.74995   0.84516   0.43392   0.00000  Uiso   1.00
N226   N     0.56454   0.03638   0.24398   0.00000  Uiso   1.00
N227   N     0.93546   0.03638   0.24397   0.00000  Uiso   1.00
N228   N     0.74995   0.99674   0.45357   0.00000  Uiso   1.00
N229   N     0.56454   0.18795   0.26363   0.00000  Uiso   1.00
N230   N     0.93546   0.18795   0.26361   0.00000  Uiso   1.00
C231   C     0.25001   0.45929   0.80557   0.00000  Uiso   1.00
C232   C     0.25000   0.46488   0.84574   0.00000  Uiso   1.00
C233   C     0.24999   0.38514   0.86858   0.00000  Uiso   1.00
C234   C     0.24997   0.40568   0.90445   0.00000  Uiso   1.00
C235   C     0.24993   0.39963   0.96492   0.00000  Uiso   1.00
C236   C     0.19889   0.51757   0.79340   0.00000  Uiso   1.00
C237   C     0.15591   0.48215   0.77222   0.00000  Uiso   1.00
C238   C     0.11288   0.54705   0.76402   0.00000  Uiso   1.00
C239   C     0.03351   0.62283   0.74321   0.00000  Uiso   1.00
C240   C     0.30112   0.51757   0.79340   0.00000  Uiso   1.00
C241   C     0.34409   0.48215   0.77221   0.00000  Uiso   1.00
C242   C     0.38712   0.54705   0.76401   0.00000  Uiso   1.00
C243   C     0.46649   0.62282   0.74320   0.00000  Uiso   1.00
C244   C     0.25001   0.63754   0.82868   0.00000  Uiso   1.00
C245   C     0.25000   0.56170   0.85829   0.00000  Uiso   1.00
C246   C     0.24999   0.58236   0.89414   0.00000  Uiso   1.00
C247   C     0.24997   0.50267   0.91702   0.00000  Uiso   1.00
C248   C     0.19889   0.61439   0.80595   0.00000  Uiso   1.00
C249   C     0.15591   0.67936   0.79778   0.00000  Uiso   1.00
C250   C     0.11288   0.64404   0.77660   0.00000  Uiso   1.00
C251   C     0.30112   0.61439   0.80595   0.00000  Uiso   1.00
C252   C     0.34409   0.67936   0.79778   0.00000  Uiso   1.00
C253   C     0.38712   0.64405   0.77659   0.00000  Uiso   1.00
H254   H     0.25000   0.38391   0.79580   0.00000  Uiso   1.00
H255   H     0.24998   0.31023   0.85886   0.00000  Uiso   1.00
H256   H     0.15593   0.40722   0.76251   0.00000  Uiso   1.00
H257   H     0.34408   0.40722   0.76251   0.00000  Uiso   1.00
H258   H     0.24993   0.27123   0.93430   0.00000  Uiso   1.00
H259   H     0.05162   0.47576   0.73114   0.00000  Uiso   1.00
H260   H     0.44838   0.47575   0.73113   0.00000  Uiso   1.00
H261   H     0.25000   0.71292   0.83845   0.00000  Uiso   1.00
H262   H     0.24998   0.65729   0.90384   0.00000  Uiso   1.00
H263   H     0.15593   0.75428   0.80750   0.00000  Uiso   1.00
H264   H     0.34408   0.75428   0.80750   0.00000  Uiso   1.00
H265   H     0.24993   0.55292   0.97081   0.00000  Uiso   1.00
H266   H     0.05162   0.75745   0.76765   0.00000  Uiso   1.00
H267   H     0.44838   0.75744   0.76765   0.00000  Uiso   1.00
O268   O     0.24990   0.36954   0.99481   0.00000  Uiso   1.00
O269   O     0.98973   0.63788   0.72826   0.00000  Uiso   1.00
O270   O     0.51027   0.63787   0.72826   0.00000  Uiso   1.00
N271   N     0.24995   0.34516   0.93392   0.00000  Uiso   1.00
N272   N     0.06454   0.53638   0.74398   0.00000  Uiso   1.00
N273   N     0.43546   0.53638   0.74397   0.00000  Uiso   1.00
N274   N     0.24995   0.49674   0.95357   0.00000  Uiso   1.00
N275   N     0.06454   0.68795   0.76363   0.00000  Uiso   1.00
N276   N     0.43546   0.68795   0.76361   0.00000  Uiso   1.00
C277   C     0.24999   0.04071   0.30557   0.00000  Uiso   1.00
C278   C     0.25000   0.03512   0.34574   0.00000  Uiso   1.00
C279   C     0.25001   0.11486   0.36858   0.00000  Uiso   1.00
C280   C     0.25003   0.09432   0.40445   0.00000  Uiso   1.00
C281   C     0.25007   0.10037   0.46492   0.00000  Uiso   1.00
C282   C     0.30111   0.98243   0.29340   0.00000  Uiso   1.00
C283   C     0.34409   0.01785   0.27222   0.00000  Uiso   1.00
C284   C     0.38712   0.95295   0.26402   0.00000  Uiso   1.00
C285   C     0.46649   0.87717   0.24321   0.00000  Uiso   1.00
C286   C     0.19888   0.98243   0.29340   0.00000  Uiso   1.00
C287   C     0.15591   0.01785   0.27221   0.00000  Uiso   1.00
C288   C     0.11288   0.95295   0.26401   0.00000  Uiso   1.00
C289   C     0.03351   0.87718   0.24320   0.00000  Uiso   1.00
C290   C     0.24999   0.86246   0.32868   0.00000  Uiso   1.00
C291   C     0.25000   0.93830   0.35829   0.00000  Uiso   1.00
C292   C     0.25001   0.91764   0.39414   0.00000  Uiso   1.00
C293   C     0.25003   0.99733   0.41702   0.00000  Uiso   1.00
C294   C     0.30111   0.88561   0.30595   0.00000  Uiso   1.00
C295   C     0.34409   0.82064   0.29778   0.00000  Uiso   1.00
C296   C     0.38712   0.85596   0.27660   0.00000  Uiso   1.00
C297   C     0.19888   0.88561   0.30595   0.00000  Uiso   1.00
C298   C     0.15591   0.82064   0.29778   0.00000  Uiso   1.00
C299   C     0.11288   0.85595   0.27659   0.00000  Uiso   1.00
H300   H     0.25000   0.11609   0.29580   0.00000  Uiso   1.00
H301   H     0.25002   0.18977   0.35886   0.00000  Uiso   1.00
H302   H     0.34407   0.09278   0.26251   0.00000  Uiso   1.00
H303   H     0.15592   0.09278   0.26251   0.00000  Uiso   1.00
H304   H     0.25007   0.22877   0.43430   0.00000  Uiso   1.00
H305   H     0.44838   0.02424   0.23114   0.00000  Uiso   1.00
H306   H     0.05162   0.02425   0.23113   0.00000  Uiso   1.00
H307   H     0.25000   0.78708   0.33845   0.00000  Uiso   1.00
H308   H     0.25002   0.84271   0.40384   0.00000  Uiso   1.00
H309   H     0.34407   0.74572   0.30750   0.00000  Uiso   1.00
H310   H     0.15592   0.74572   0.30750   0.00000  Uiso   1.00
H311   H     0.25007   0.94708   0.47081   0.00000  Uiso   1.00
H312   H     0.44838   0.74255   0.26765   0.00000  Uiso   1.00
H313   H     0.05162   0.74256   0.26765   0.00000  Uiso   1.00
O314   O     0.25010   0.13046   0.49481   0.00000  Uiso   1.00
O315   O     0.51027   0.86212   0.22826   0.00000  Uiso   1.00
O316   O     0.98973   0.86213   0.22826   0.00000  Uiso   1.00
N317   N     0.25005   0.15484   0.43392   0.00000  Uiso   1.00
N318   N     0.43546   0.96362   0.24398   0.00000  Uiso   1.00
N319   N     0.06454   0.96362   0.24397   0.00000  Uiso   1.00
N320   N     0.25005   0.00326   0.45357   0.00000  Uiso   1.00
N321   N     0.43546   0.81205   0.26363   0.00000  Uiso   1.00
N322   N     0.06454   0.81205   0.26361   0.00000  Uiso   1.00
C323   C     0.74999   0.54071   0.80557   0.00000  Uiso   1.00
C324   C     0.75000   0.53512   0.84574   0.00000  Uiso   1.00
C325   C     0.75001   0.61486   0.86858   0.00000  Uiso   1.00
C326   C     0.75003   0.59432   0.90445   0.00000  Uiso   1.00
C327   C     0.75007   0.60037   0.96492   0.00000  Uiso   1.00
C328   C     0.80111   0.48243   0.79340   0.00000  Uiso   1.00
C329   C     0.84409   0.51785   0.77222   0.00000  Uiso   1.00
C330   C     0.88712   0.45295   0.76402   0.00000  Uiso   1.00
C331   C     0.96649   0.37717   0.74321   0.00000  Uiso   1.00
C332   C     0.69888   0.48243   0.79340   0.00000  Uiso   1.00
C333   C     0.65591   0.51785   0.77221   0.00000  Uiso   1.00
C334   C     0.61288   0.45295   0.76401   0.00000  Uiso   1.00
C335   C     0.53351   0.37718   0.74320   0.00000  Uiso   1.00
C336   C     0.74999   0.36246   0.82868   0.00000  Uiso   1.00
C337   C     0.75000   0.43830   0.85829   0.00000  Uiso   1.00
C338   C     0.75001   0.41764   0.89414   0.00000  Uiso   1.00
C339   C     0.75003   0.49733   0.91702   0.00000  Uiso   1.00
C340   C     0.80111   0.38561   0.80595   0.00000  Uiso   1.00
C341   C     0.84409   0.32064   0.79778   0.00000  Uiso   1.00
C342   C     0.88712   0.35596   0.77660   0.00000  Uiso   1.00
C343   C     0.69888   0.38561   0.80595   0.00000  Uiso   1.00
C344   C     0.65591   0.32064   0.79778   0.00000  Uiso   1.00
C345   C     0.61288   0.35595   0.77659   0.00000  Uiso   1.00
H346   H     0.75000   0.61609   0.79580   0.00000  Uiso   1.00
H347   H     0.75002   0.68977   0.85886   0.00000  Uiso   1.00
H348   H     0.84407   0.59278   0.76251   0.00000  Uiso   1.00
H349   H     0.65592   0.59278   0.76251   0.00000  Uiso   1.00
H350   H     0.75007   0.72877   0.93430   0.00000  Uiso   1.00
H351   H     0.94838   0.52424   0.73114   0.00000  Uiso   1.00
H352   H     0.55162   0.52425   0.73113   0.00000  Uiso   1.00
H353   H     0.75000   0.28708   0.83845   0.00000  Uiso   1.00
H354   H     0.75002   0.34271   0.90384   0.00000  Uiso   1.00
H355   H     0.84407   0.24572   0.80750   0.00000  Uiso   1.00
H356   H     0.65592   0.24572   0.80750   0.00000  Uiso   1.00
H357   H     0.75007   0.44708   0.97081   0.00000  Uiso   1.00
H358   H     0.94838   0.24255   0.76765   0.00000  Uiso   1.00
H359   H     0.55162   0.24256   0.76765   0.00000  Uiso   1.00
O360   O     0.75010   0.63046   0.99481   0.00000  Uiso   1.00
O361   O     0.01027   0.36212   0.72826   0.00000  Uiso   1.00
O362   O     0.48973   0.36213   0.72826   0.00000  Uiso   1.00
N363   N     0.75005   0.65484   0.93392   0.00000  Uiso   1.00
N364   N     0.93546   0.46362   0.74398   0.00000  Uiso   1.00
N365   N     0.56454   0.46362   0.74397   0.00000  Uiso   1.00
N366   N     0.75005   0.50326   0.95357   0.00000  Uiso   1.00
N367   N     0.93546   0.31205   0.76363   0.00000  Uiso   1.00
N368   N     0.56454   0.31205   0.76361   0.00000  Uiso   1.00
