data_job_04115
_audit_creation_date              2018-12-19
_audit_creation_method            'Materials Studio'
_symmetry_space_group_name_H-M    'P1'
_symmetry_Int_Tables_number       1
_symmetry_cell_setting            triclinic
loop_
_symmetry_equiv_pos_as_xyz
  x,y,z
_cell_length_a                    12.6554
_cell_length_b                    10.3959
_cell_length_c                    31.5491
_cell_angle_alpha                 90.0000
_cell_angle_beta                  58.4298
_cell_angle_gamma                 90.0000
loop_
_atom_site_label
_atom_site_type_symbol
_atom_site_fract_x
_atom_site_fract_y
_atom_site_fract_z
_atom_site_U_iso_or_equiv
_atom_site_adp_type
_atom_site_occupancy
C1     C     0.21454   0.67149   0.87140   0.00000  Uiso   1.00
C2     C     0.28812   0.69734   0.89633   0.00000  Uiso   1.00
C3     C     0.32451   0.60545   0.91808   0.00000  Uiso   1.00
C4     C     0.39121   0.64852   0.93893   0.00000  Uiso   1.00
C5     C     0.50097   0.66885   0.97781   0.00000  Uiso   1.00
C6     C     0.09973   0.75680   0.89803   0.00000  Uiso   1.00
C7     C     0.97773   0.71491   0.92120   0.00000  Uiso   1.00
C8     C     0.88584   0.80803   0.94348   0.00000  Uiso   1.00
C9     C     0.70312   0.92068   0.98497   0.00000  Uiso   1.00
C10    C     0.29259   0.72472   0.81872   0.00000  Uiso   1.00
C11    C     0.33272   0.65586   0.77519   0.00000  Uiso   1.00
C12    C     0.40318   0.72199   0.73069   0.00000  Uiso   1.00
C13    C     0.51990   0.78483   0.64902   0.00000  Uiso   1.00
C14    C     0.26828   0.91137   0.86978   0.00000  Uiso   1.00
C15    C     0.31730   0.82764   0.89545   0.00000  Uiso   1.00
C16    C     0.38397   0.87085   0.91628   0.00000  Uiso   1.00
C17    C     0.42046   0.77904   0.93805   0.00000  Uiso   1.00
C18    C     0.12891   0.88709   0.89716   0.00000  Uiso   1.00
C19    C     0.03719   0.98030   0.91941   0.00000  Uiso   1.00
C20    C     0.91508   0.93856   0.94260   0.00000  Uiso   1.00
C21    C     0.32178   0.85501   0.81783   0.00000  Uiso   1.00
C22    C     0.39218   0.92126   0.77339   0.00000  Uiso   1.00
C23    C     0.43242   0.85252   0.72981   0.00000  Uiso   1.00
H24    H     0.19180   0.57006   0.87208   0.00000  Uiso   1.00
H25    H     0.30189   0.50463   0.91875   0.00000  Uiso   1.00
H26    H     0.95517   0.61407   0.92187   0.00000  Uiso   1.00
H27    H     0.31011   0.55504   0.77588   0.00000  Uiso   1.00
H28    H     0.43678   0.48956   0.97012   0.00000  Uiso   1.00
H29    H     0.70569   0.72033   0.97668   0.00000  Uiso   1.00
H30    H     0.45415   0.59584   0.66884   0.00000  Uiso   1.00
H31    H     0.29100   0.01281   0.86909   0.00000  Uiso   1.00
H32    H     0.40655   0.97169   0.91560   0.00000  Uiso   1.00
H33    H     0.05981   0.08112   0.91871   0.00000  Uiso   1.00
H34    H     0.41475   0.02209   0.77273   0.00000  Uiso   1.00
H35    H     0.52172   0.86864   0.96756   0.00000  Uiso   1.00
H36    H     0.79062   0.09940   0.97412   0.00000  Uiso   1.00
H37    H     0.53909   0.97492   0.66628   0.00000  Uiso   1.00
O38    O     0.55343   0.64407   0.99950   0.00000  Uiso   1.00
O39    O     0.59426   0.94682   0.00810   0.00000  Uiso   1.00
O40    O     0.57624   0.78350   0.60422   0.00000  Uiso   1.00
N41    N     0.44094   0.58442   0.96313   0.00000  Uiso   1.00
N42    N     0.75741   0.80017   0.96927   0.00000  Uiso   1.00
N43    N     0.45713   0.68380   0.68146   0.00000  Uiso   1.00
N44    N     0.48664   0.78840   0.96175   0.00000  Uiso   1.00
N45    N     0.80311   0.00415   0.96789   0.00000  Uiso   1.00
N46    N     0.50283   0.88777   0.68008   0.00000  Uiso   1.00
C47    C     0.78546   0.17149   0.62860   0.00000  Uiso   1.00
C48    C     0.71188   0.19734   0.60367   0.00000  Uiso   1.00
C49    C     0.67549   0.10545   0.58192   0.00000  Uiso   1.00
C50    C     0.60879   0.14852   0.56107   0.00000  Uiso   1.00
C51    C     0.49903   0.16885   0.52219   0.00000  Uiso   1.00
C52    C     0.90027   0.25680   0.60197   0.00000  Uiso   1.00
C53    C     0.02227   0.21491   0.57880   0.00000  Uiso   1.00
C54    C     0.11416   0.30803   0.55652   0.00000  Uiso   1.00
C55    C     0.29688   0.42068   0.51503   0.00000  Uiso   1.00
C56    C     0.70741   0.22472   0.68128   0.00000  Uiso   1.00
C57    C     0.66728   0.15586   0.72481   0.00000  Uiso   1.00
C58    C     0.59682   0.22199   0.76931   0.00000  Uiso   1.00
C59    C     0.48010   0.28483   0.85098   0.00000  Uiso   1.00
C60    C     0.73172   0.41137   0.63022   0.00000  Uiso   1.00
C61    C     0.68270   0.32764   0.60455   0.00000  Uiso   1.00
C62    C     0.61603   0.37085   0.58372   0.00000  Uiso   1.00
C63    C     0.57954   0.27904   0.56195   0.00000  Uiso   1.00
C64    C     0.87109   0.38709   0.60284   0.00000  Uiso   1.00
C65    C     0.96281   0.48030   0.58059   0.00000  Uiso   1.00
C66    C     0.08492   0.43856   0.55740   0.00000  Uiso   1.00
C67    C     0.67822   0.35501   0.68217   0.00000  Uiso   1.00
C68    C     0.60782   0.42126   0.72661   0.00000  Uiso   1.00
C69    C     0.56758   0.35252   0.77019   0.00000  Uiso   1.00
H70    H     0.80820   0.07006   0.62792   0.00000  Uiso   1.00
H71    H     0.69811   0.00463   0.58125   0.00000  Uiso   1.00
H72    H     0.04483   0.11407   0.57813   0.00000  Uiso   1.00
H73    H     0.68989   0.05504   0.72412   0.00000  Uiso   1.00
H74    H     0.56322   0.98956   0.52988   0.00000  Uiso   1.00
H75    H     0.29431   0.22033   0.52332   0.00000  Uiso   1.00
H76    H     0.54585   0.09584   0.83116   0.00000  Uiso   1.00
H77    H     0.70900   0.51281   0.63091   0.00000  Uiso   1.00
H78    H     0.59345   0.47169   0.58440   0.00000  Uiso   1.00
H79    H     0.94019   0.58112   0.58129   0.00000  Uiso   1.00
H80    H     0.58525   0.52209   0.72727   0.00000  Uiso   1.00
H81    H     0.47828   0.36864   0.53244   0.00000  Uiso   1.00
H82    H     0.20938   0.59940   0.52588   0.00000  Uiso   1.00
H83    H     0.46091   0.47492   0.83372   0.00000  Uiso   1.00
O84    O     0.44657   0.14407   0.50050   0.00000  Uiso   1.00
O85    O     0.40574   0.44682   0.49190   0.00000  Uiso   1.00
O86    O     0.42376   0.28350   0.89578   0.00000  Uiso   1.00
N87    N     0.55906   0.08442   0.53687   0.00000  Uiso   1.00
N88    N     0.24259   0.30017   0.53073   0.00000  Uiso   1.00
N89    N     0.54287   0.18380   0.81854   0.00000  Uiso   1.00
N90    N     0.51336   0.28840   0.53825   0.00000  Uiso   1.00
N91    N     0.19689   0.50415   0.53211   0.00000  Uiso   1.00
N92    N     0.49717   0.38777   0.81992   0.00000  Uiso   1.00
C93    C     0.78546   0.32851   0.12860   0.00000  Uiso   1.00
C94    C     0.71188   0.30266   0.10367   0.00000  Uiso   1.00
C95    C     0.67549   0.39455   0.08192   0.00000  Uiso   1.00
C96    C     0.60879   0.35148   0.06107   0.00000  Uiso   1.00
C97    C     0.49903   0.33115   0.02219   0.00000  Uiso   1.00
C98    C     0.90027   0.24320   0.10197   0.00000  Uiso   1.00
C99    C     0.02227   0.28509   0.07880   0.00000  Uiso   1.00
C100   C     0.11416   0.19197   0.05652   0.00000  Uiso   1.00
C101   C     0.29688   0.07932   0.01503   0.00000  Uiso   1.00
C102   C     0.70741   0.27528   0.18128   0.00000  Uiso   1.00
C103   C     0.66728   0.34414   0.22481   0.00000  Uiso   1.00
C104   C     0.59682   0.27801   0.26931   0.00000  Uiso   1.00
C105   C     0.48010   0.21517   0.35098   0.00000  Uiso   1.00
C106   C     0.73172   0.08863   0.13022   0.00000  Uiso   1.00
C107   C     0.68270   0.17236   0.10455   0.00000  Uiso   1.00
C108   C     0.61603   0.12915   0.08372   0.00000  Uiso   1.00
C109   C     0.57954   0.22096   0.06195   0.00000  Uiso   1.00
C110   C     0.87109   0.11291   0.10284   0.00000  Uiso   1.00
C111   C     0.96281   0.01970   0.08059   0.00000  Uiso   1.00
C112   C     0.08492   0.06144   0.05740   0.00000  Uiso   1.00
C113   C     0.67822   0.14499   0.18217   0.00000  Uiso   1.00
C114   C     0.60782   0.07874   0.22661   0.00000  Uiso   1.00
C115   C     0.56758   0.14748   0.27019   0.00000  Uiso   1.00
H116   H     0.80820   0.42994   0.12792   0.00000  Uiso   1.00
H117   H     0.69811   0.49537   0.08125   0.00000  Uiso   1.00
H118   H     0.04483   0.38593   0.07813   0.00000  Uiso   1.00
H119   H     0.68989   0.44496   0.22412   0.00000  Uiso   1.00
H120   H     0.56322   0.51044   0.02988   0.00000  Uiso   1.00
H121   H     0.29431   0.27967   0.02332   0.00000  Uiso   1.00
H122   H     0.54585   0.40416   0.33116   0.00000  Uiso   1.00
H123   H     0.70900   0.98719   0.13091   0.00000  Uiso   1.00
H124   H     0.59345   0.02831   0.08440   0.00000  Uiso   1.00
H125   H     0.94019   0.91888   0.08129   0.00000  Uiso   1.00
H126   H     0.58525   0.97791   0.22727   0.00000  Uiso   1.00
H127   H     0.47828   0.13136   0.03244   0.00000  Uiso   1.00
H128   H     0.20938   0.90060   0.02588   0.00000  Uiso   1.00
H129   H     0.46091   0.02508   0.33372   0.00000  Uiso   1.00
O130   O     0.44657   0.35593   0.00050   0.00000  Uiso   1.00
O131   O     0.40574   0.05318   0.99190   0.00000  Uiso   1.00
O132   O     0.42376   0.21650   0.39578   0.00000  Uiso   1.00
N133   N     0.55906   0.41558   0.03687   0.00000  Uiso   1.00
N134   N     0.24259   0.19983   0.03073   0.00000  Uiso   1.00
N135   N     0.54287   0.31620   0.31854   0.00000  Uiso   1.00
N136   N     0.51336   0.21160   0.03825   0.00000  Uiso   1.00
N137   N     0.19689   0.99585   0.03211   0.00000  Uiso   1.00
N138   N     0.49717   0.11223   0.31992   0.00000  Uiso   1.00
C139   C     0.21454   0.82851   0.37140   0.00000  Uiso   1.00
C140   C     0.28812   0.80266   0.39633   0.00000  Uiso   1.00
C141   C     0.32451   0.89455   0.41808   0.00000  Uiso   1.00
C142   C     0.39121   0.85148   0.43893   0.00000  Uiso   1.00
C143   C     0.50097   0.83115   0.47781   0.00000  Uiso   1.00
C144   C     0.09973   0.74320   0.39803   0.00000  Uiso   1.00
C145   C     0.97773   0.78509   0.42120   0.00000  Uiso   1.00
C146   C     0.88584   0.69197   0.44348   0.00000  Uiso   1.00
C147   C     0.70312   0.57932   0.48497   0.00000  Uiso   1.00
C148   C     0.29259   0.77528   0.31872   0.00000  Uiso   1.00
C149   C     0.33272   0.84414   0.27519   0.00000  Uiso   1.00
C150   C     0.40318   0.77801   0.23069   0.00000  Uiso   1.00
C151   C     0.51990   0.71517   0.14902   0.00000  Uiso   1.00
C152   C     0.26828   0.58863   0.36978   0.00000  Uiso   1.00
C153   C     0.31730   0.67236   0.39545   0.00000  Uiso   1.00
C154   C     0.38397   0.62915   0.41628   0.00000  Uiso   1.00
C155   C     0.42046   0.72096   0.43805   0.00000  Uiso   1.00
C156   C     0.12891   0.61291   0.39716   0.00000  Uiso   1.00
C157   C     0.03719   0.51970   0.41941   0.00000  Uiso   1.00
C158   C     0.91508   0.56144   0.44260   0.00000  Uiso   1.00
C159   C     0.32178   0.64499   0.31783   0.00000  Uiso   1.00
C160   C     0.39218   0.57874   0.27339   0.00000  Uiso   1.00
C161   C     0.43242   0.64748   0.22981   0.00000  Uiso   1.00
H162   H     0.19180   0.92994   0.37208   0.00000  Uiso   1.00
H163   H     0.30189   0.99537   0.41875   0.00000  Uiso   1.00
H164   H     0.95517   0.88593   0.42187   0.00000  Uiso   1.00
H165   H     0.31011   0.94496   0.27588   0.00000  Uiso   1.00
H166   H     0.43678   0.01044   0.47012   0.00000  Uiso   1.00
H167   H     0.70569   0.77967   0.47668   0.00000  Uiso   1.00
H168   H     0.45415   0.90416   0.16884   0.00000  Uiso   1.00
H169   H     0.29100   0.48719   0.36909   0.00000  Uiso   1.00
H170   H     0.40655   0.52831   0.41560   0.00000  Uiso   1.00
H171   H     0.05981   0.41888   0.41871   0.00000  Uiso   1.00
H172   H     0.41475   0.47791   0.27273   0.00000  Uiso   1.00
H173   H     0.52172   0.63136   0.46756   0.00000  Uiso   1.00
H174   H     0.79062   0.40060   0.47412   0.00000  Uiso   1.00
H175   H     0.53909   0.52508   0.16628   0.00000  Uiso   1.00
O176   O     0.55343   0.85593   0.49950   0.00000  Uiso   1.00
O177   O     0.59426   0.55318   0.50810   0.00000  Uiso   1.00
O178   O     0.57624   0.71650   0.10422   0.00000  Uiso   1.00
N179   N     0.44094   0.91558   0.46313   0.00000  Uiso   1.00
N180   N     0.75741   0.69983   0.46927   0.00000  Uiso   1.00
N181   N     0.45713   0.81620   0.18146   0.00000  Uiso   1.00
N182   N     0.48664   0.71160   0.46175   0.00000  Uiso   1.00
N183   N     0.80311   0.49585   0.46789   0.00000  Uiso   1.00
N184   N     0.50283   0.61223   0.18008   0.00000  Uiso   1.00
