data_job_06577
_audit_creation_date              2018-12-19
_audit_creation_method            'Materials Studio'
_symmetry_space_group_name_H-M    'P1'
_symmetry_Int_Tables_number       1
_symmetry_cell_setting            triclinic
loop_
_symmetry_equiv_pos_as_xyz
  x,y,z
_cell_length_a                    20.5615
_cell_length_b                    21.7562
_cell_length_c                    23.0702
_cell_angle_alpha                 75.6716
_cell_angle_beta                  100.6818
_cell_angle_gamma                 66.3715
loop_
_atom_site_label
_atom_site_type_symbol
_atom_site_fract_x
_atom_site_fract_y
_atom_site_fract_z
_atom_site_U_iso_or_equiv
_atom_site_adp_type
_atom_site_occupancy
C1     C     0.26214   0.40313   0.30491   0.00000  Uiso   1.00
C2     C     0.31612   0.40066   0.26720   0.00000  Uiso   1.00
C3     C     0.38303   0.40266   0.28674   0.00000  Uiso   1.00
C4     C     0.42444   0.39983   0.24538   0.00000  Uiso   1.00
C5     C     0.51200   0.39674   0.19574   0.00000  Uiso   1.00
C6     C     0.18653   0.46674   0.26283   0.00000  Uiso   1.00
C7     C     0.14448   0.52428   0.27872   0.00000  Uiso   1.00
C8     C     0.07679   0.57708   0.23368   0.00000  Uiso   1.00
C9     C     0.96312   0.67655   0.17730   0.00000  Uiso   1.00
C10    C     0.25260   0.33612   0.31054   0.00000  Uiso   1.00
C11    C     0.26610   0.28385   0.36653   0.00000  Uiso   1.00
C12    C     0.25402   0.22668   0.36166   0.00000  Uiso   1.00
C13    C     0.24296   0.12336   0.37933   0.00000  Uiso   1.00
C14    C     0.21667   0.39456   0.19669   0.00000  Uiso   1.00
C15    C     0.29142   0.39601   0.20841   0.00000  Uiso   1.00
C16    C     0.33274   0.39317   0.16700   0.00000  Uiso   1.00
C17    C     0.39971   0.39516   0.18649   0.00000  Uiso   1.00
C18    C     0.16183   0.46209   0.20405   0.00000  Uiso   1.00
C19    C     0.09418   0.51480   0.15898   0.00000  Uiso   1.00
C20    C     0.05205   0.57241   0.17479   0.00000  Uiso   1.00
C21    C     0.22791   0.33147   0.25175   0.00000  Uiso   1.00
C22    C     0.21581   0.27437   0.24679   0.00000  Uiso   1.00
C23    C     0.22928   0.22202   0.30276   0.00000  Uiso   1.00
H24    H     0.28135   0.40676   0.35068   0.00000  Uiso   1.00
H25    H     0.40212   0.40627   0.33224   0.00000  Uiso   1.00
H26    H     0.16360   0.52787   0.32422   0.00000  Uiso   1.00
H27    H     0.28520   0.28748   0.41201   0.00000  Uiso   1.00
H28    H     0.52511   0.40369   0.28586   0.00000  Uiso   1.00
H29    H     0.02216   0.66009   0.26896   0.00000  Uiso   1.00
H30    H     0.27859   0.15317   0.45409   0.00000  Uiso   1.00
H31    H     0.19745   0.39093   0.15092   0.00000  Uiso   1.00
H32    H     0.31362   0.38957   0.12152   0.00000  Uiso   1.00
H33    H     0.07509   0.51118   0.11350   0.00000  Uiso   1.00
H34    H     0.19670   0.27078   0.20129   0.00000  Uiso   1.00
H35    H     0.45327   0.39015   0.11483   0.00000  Uiso   1.00
H36    H     0.95032   0.64654   0.09793   0.00000  Uiso   1.00
H37    H     0.20675   0.13962   0.28306   0.00000  Uiso   1.00
O38    O     0.56711   0.39633   0.18460   0.00000  Uiso   1.00
O39    O     0.90726   0.73270   0.16243   0.00000  Uiso   1.00
O40    O     0.24368   0.06764   0.40532   0.00000  Uiso   1.00
N41    N     0.49227   0.40068   0.24965   0.00000  Uiso   1.00
N42    N     0.02205   0.64040   0.23384   0.00000  Uiso   1.00
N43    N     0.26176   0.16648   0.40693   0.00000  Uiso   1.00
N44    N     0.45362   0.39339   0.15762   0.00000  Uiso   1.00
N45    N     0.98339   0.63311   0.14181   0.00000  Uiso   1.00
N46    N     0.22311   0.15919   0.31490   0.00000  Uiso   1.00
C47    C     0.92453   0.64075   0.61995   0.00000  Uiso   1.00
C48    C     0.92818   0.69672   0.64736   0.00000  Uiso   1.00
C49    C     0.86711   0.75521   0.64778   0.00000  Uiso   1.00
C50    C     0.88220   0.80020   0.67508   0.00000  Uiso   1.00
C51    C     0.87667   0.88913   0.71367   0.00000  Uiso   1.00
C52    C     0.96610   0.64080   0.57165   0.00000  Uiso   1.00
C53    C     0.93691   0.65225   0.50841   0.00000  Uiso   1.00
C54    C     0.98394   0.65015   0.47199   0.00000  Uiso   1.00
C55    C     0.03730   0.65220   0.39305   0.00000  Uiso   1.00
C56    C     0.97211   0.56820   0.67356   0.00000  Uiso   1.00
C57    C     0.94799   0.51861   0.69600   0.00000  Uiso   1.00
C58    C     0.00008   0.45539   0.74537   0.00000  Uiso   1.00
C59    C     0.06278   0.34473   0.82466   0.00000  Uiso   1.00
C60    C     0.05995   0.61664   0.66771   0.00000  Uiso   1.00
C61    C     0.00173   0.68363   0.67330   0.00000  Uiso   1.00
C62    C     0.01693   0.72854   0.70061   0.00000  Uiso   1.00
C63    C     0.95588   0.78709   0.70107   0.00000  Uiso   1.00
C64    C     0.03965   0.62770   0.59759   0.00000  Uiso   1.00
C65    C     0.08673   0.62558   0.56125   0.00000  Uiso   1.00
C66    C     0.05762   0.63704   0.49798   0.00000  Uiso   1.00
C67    C     0.04567   0.55511   0.69950   0.00000  Uiso   1.00
C68    C     0.09781   0.49194   0.74884   0.00000  Uiso   1.00
C69    C     0.07376   0.44227   0.77136   0.00000  Uiso   1.00
H70    H     0.86727   0.65094   0.59975   0.00000  Uiso   1.00
H71    H     0.81019   0.76533   0.62769   0.00000  Uiso   1.00
H72    H     0.87999   0.66238   0.48836   0.00000  Uiso   1.00
H73    H     0.89107   0.52876   0.67592   0.00000  Uiso   1.00
H74    H     0.77935   0.88639   0.67009   0.00000  Uiso   1.00
H75    H     0.92653   0.66929   0.37629   0.00000  Uiso   1.00
H76    H     0.94988   0.38753   0.77180   0.00000  Uiso   1.00
H77    H     0.11721   0.60644   0.68790   0.00000  Uiso   1.00
H78    H     0.07385   0.71840   0.72068   0.00000  Uiso   1.00
H79    H     0.14365   0.61544   0.58134   0.00000  Uiso   1.00
H80    H     0.15472   0.48183   0.76890   0.00000  Uiso   1.00
H81    H     0.99334   0.84830   0.74556   0.00000  Uiso   1.00
H82    H     0.14053   0.63119   0.45176   0.00000  Uiso   1.00
H83    H     0.16387   0.34944   0.84727   0.00000  Uiso   1.00
O84    O     0.85331   0.94181   0.72778   0.00000  Uiso   1.00
O85    O     0.04641   0.65696   0.34234   0.00000  Uiso   1.00
O86    O     0.07704   0.28731   0.86124   0.00000  Uiso   1.00
N87    N     0.83566   0.86205   0.68336   0.00000  Uiso   1.00
N88    N     0.97327   0.65909   0.40868   0.00000  Uiso   1.00
N89    N     0.99510   0.39566   0.77844   0.00000  Uiso   1.00
N90    N     0.95081   0.84156   0.72397   0.00000  Uiso   1.00
N91    N     0.08841   0.63859   0.44929   0.00000  Uiso   1.00
N92    N     0.11025   0.37516   0.81905   0.00000  Uiso   1.00
C93    C     0.46376   0.71047   0.43901   0.00000  Uiso   1.00
C94    C     0.39696   0.74543   0.37884   0.00000  Uiso   1.00
C95    C     0.37200   0.70930   0.34608   0.00000  Uiso   1.00
C96    C     0.30992   0.75101   0.29207   0.00000  Uiso   1.00
C97    C     0.21166   0.79387   0.20173   0.00000  Uiso   1.00
C98    C     0.51562   0.74205   0.42459   0.00000  Uiso   1.00
C99    C     0.59043   0.70308   0.43031   0.00000  Uiso   1.00
C100   C     0.62824   0.74195   0.41481   0.00000  Uiso   1.00
C101   C     0.71422   0.77955   0.39554   0.00000  Uiso   1.00
C102   C     0.43358   0.73872   0.48780   0.00000  Uiso   1.00
C103   C     0.43942   0.69696   0.54667   0.00000  Uiso   1.00
C104   C     0.40817   0.73303   0.58441   0.00000  Uiso   1.00
C105   C     0.36676   0.76547   0.66328   0.00000  Uiso   1.00
C106   C     0.39791   0.84879   0.40135   0.00000  Uiso   1.00
C107   C     0.36119   0.82056   0.35838   0.00000  Uiso   1.00
C108   C     0.29913   0.86234   0.30440   0.00000  Uiso   1.00
C109   C     0.27408   0.82628   0.27157   0.00000  Uiso   1.00
C110   C     0.47986   0.81718   0.40413   0.00000  Uiso   1.00
C111   C     0.51757   0.85611   0.38863   0.00000  Uiso   1.00
C112   C     0.59241   0.81721   0.39432   0.00000  Uiso   1.00
C113   C     0.39781   0.81386   0.46734   0.00000  Uiso   1.00
C114   C     0.36655   0.85000   0.50499   0.00000  Uiso   1.00
C115   C     0.37234   0.80830   0.56391   0.00000  Uiso   1.00
H116   H     0.49162   0.65198   0.45494   0.00000  Uiso   1.00
H117   H     0.39970   0.65116   0.36193   0.00000  Uiso   1.00
H118   H     0.61810   0.64494   0.44615   0.00000  Uiso   1.00
H119   H     0.46710   0.63882   0.56249   0.00000  Uiso   1.00
H120   H     0.28203   0.68338   0.24977   0.00000  Uiso   1.00
H121   H     0.74254   0.67026   0.42736   0.00000  Uiso   1.00
H122   H     0.42415   0.65737   0.67270   0.00000  Uiso   1.00
H123   H     0.37006   0.90728   0.38542   0.00000  Uiso   1.00
H124   H     0.27146   0.92048   0.28858   0.00000  Uiso   1.00
H125   H     0.48987   0.91425   0.37280   0.00000  Uiso   1.00
H126   H     0.33887   0.90814   0.48914   0.00000  Uiso   1.00
H127   H     0.17796   0.90197   0.19024   0.00000  Uiso   1.00
H128   H     0.63847   0.88885   0.36784   0.00000  Uiso   1.00
H129   H     0.32007   0.87596   0.61317   0.00000  Uiso   1.00
O130   O     0.16735   0.79675   0.15754   0.00000  Uiso   1.00
O131   O     0.77152   0.77953   0.39056   0.00000  Uiso   1.00
O132   O     0.35379   0.76262   0.71243   0.00000  Uiso   1.00
N133   N     0.27106   0.73302   0.24905   0.00000  Uiso   1.00
N134   N     0.70161   0.72075   0.41509   0.00000  Uiso   1.00
N135   N     0.40395   0.70869   0.64446   0.00000  Uiso   1.00
N136   N     0.21506   0.85064   0.21702   0.00000  Uiso   1.00
N137   N     0.64561   0.83837   0.38305   0.00000  Uiso   1.00
N138   N     0.34795   0.82631   0.61243   0.00000  Uiso   1.00
C139   C     0.83526   0.05141   0.97725   0.00000  Uiso   1.00
C140   C     0.75952   0.11705   0.93919   0.00000  Uiso   1.00
C141   C     0.71700   0.16729   0.96201   0.00000  Uiso   1.00
C142   C     0.64927   0.22349   0.91969   0.00000  Uiso   1.00
C143   C     0.53538   0.32458   0.87015   0.00000  Uiso   1.00
C144   C     0.88935   0.05763   0.94184   0.00000  Uiso   1.00
C145   C     0.95599   0.05789   0.96689   0.00000  Uiso   1.00
C146   C     0.99757   0.06406   0.92680   0.00000  Uiso   1.00
C147   C     0.08526   0.07283   0.88138   0.00000  Uiso   1.00
C148   C     0.82631   0.98672   0.97140   0.00000  Uiso   1.00
C149   C     0.83996   0.92735   0.02130   0.00000  Uiso   1.00
C150   C     0.82848   0.87381   0.00610   0.00000  Uiso   1.00
C151   C     0.81829   0.77249   0.00658   0.00000  Uiso   1.00
C152   C     0.79060   0.06187   0.86150   0.00000  Uiso   1.00
C153   C     0.73527   0.12274   0.87632   0.00000  Uiso   1.00
C154   C     0.66759   0.17887   0.83395   0.00000  Uiso   1.00
C155   C     0.62497   0.22919   0.85671   0.00000  Uiso   1.00
C156   C     0.86510   0.06331   0.87897   0.00000  Uiso   1.00
C157   C     0.90658   0.06947   0.83883   0.00000  Uiso   1.00
C158   C     0.97327   0.06976   0.86382   0.00000  Uiso   1.00
C159   C     0.80205   0.99240   0.90853   0.00000  Uiso   1.00
C160   C     0.79055   0.93894   0.89324   0.00000  Uiso   1.00
C161   C     0.80418   0.87951   0.94312   0.00000  Uiso   1.00
H162   H     0.85415   0.04698   0.02619   0.00000  Uiso   1.00
H163   H     0.73579   0.16288   0.01067   0.00000  Uiso   1.00
H164   H     0.97475   0.05349   0.01554   0.00000  Uiso   1.00
H165   H     0.85873   0.92297   0.06995   0.00000  Uiso   1.00
H166   H     0.59389   0.29389   0.96572   0.00000  Uiso   1.00
H167   H     0.09776   0.06321   0.97602   0.00000  Uiso   1.00
H168   H     0.85312   0.78799   0.09073   0.00000  Uiso   1.00
H169   H     0.77172   0.06630   0.81256   0.00000  Uiso   1.00
H170   H     0.64883   0.18326   0.78531   0.00000  Uiso   1.00
H171   H     0.88780   0.07387   0.79019   0.00000  Uiso   1.00
H172   H     0.77178   0.94335   0.84459   0.00000  Uiso   1.00
H173   H     0.52331   0.31044   0.78281   0.00000  Uiso   1.00
H174   H     0.02719   0.07975   0.79311   0.00000  Uiso   1.00
H175   H     0.78254   0.80454   0.90782   0.00000  Uiso   1.00
O176   O     0.47926   0.37877   0.86019   0.00000  Uiso   1.00
O177   O     0.14033   0.07611   0.87370   0.00000  Uiso   1.00
O178   O     0.81936   0.71503   0.02421   0.00000  Uiso   1.00
N179   N     0.59413   0.28173   0.92642   0.00000  Uiso   1.00
N180   N     0.06522   0.06607   0.93604   0.00000  Uiso   1.00
N181   N     0.83652   0.80875   0.04329   0.00000  Uiso   1.00
N182   N     0.55616   0.29063   0.82799   0.00000  Uiso   1.00
N183   N     0.02724   0.07497   0.83762   0.00000  Uiso   1.00
N184   N     0.79854   0.81765   0.94487   0.00000  Uiso   1.00
C185   C     0.88618   0.07675   0.37637   0.00000  Uiso   1.00
C186   C     0.93568   0.10639   0.40324   0.00000  Uiso   1.00
C187   C     0.01337   0.07326   0.42160   0.00000  Uiso   1.00
C188   C     0.04828   0.10909   0.44500   0.00000  Uiso   1.00
C189   C     0.13142   0.14499   0.48595   0.00000  Uiso   1.00
C190   C     0.83224   0.13439   0.31279   0.00000  Uiso   1.00
C191   C     0.82296   0.12480   0.25511   0.00000  Uiso   1.00
C192   C     0.77078   0.18420   0.20238   0.00000  Uiso   1.00
C193   C     0.69329   0.26356   0.10293   0.00000  Uiso   1.00
C194   C     0.83843   0.07348   0.41918   0.00000  Uiso   1.00
C195   C     0.83434   0.01268   0.45094   0.00000  Uiso   1.00
C196   C     0.78736   0.02080   0.48776   0.00000  Uiso   1.00
C197   C     0.71949   0.00559   0.55349   0.00000  Uiso   1.00
C198   C     0.81002   0.19931   0.38529   0.00000  Uiso   1.00
C199   C     0.89431   0.17295   0.40808   0.00000  Uiso   1.00
C200   C     0.92910   0.20884   0.43147   0.00000  Uiso   1.00
C201   C     0.00683   0.17577   0.44986   0.00000  Uiso   1.00
C202   C     0.79087   0.20095   0.31764   0.00000  Uiso   1.00
C203   C     0.73869   0.26038   0.26498   0.00000  Uiso   1.00
C204   C     0.72933   0.25089   0.20723   0.00000  Uiso   1.00
C205   C     0.79706   0.14004   0.42403   0.00000  Uiso   1.00
C206   C     0.75008   0.14827   0.46081   0.00000  Uiso   1.00
C207   C     0.74591   0.08749   0.49262   0.00000  Uiso   1.00
H208   H     0.91839   0.02493   0.37259   0.00000  Uiso   1.00
H209   H     0.04537   0.02174   0.41783   0.00000  Uiso   1.00
H210   H     0.85497   0.07328   0.25138   0.00000  Uiso   1.00
H211   H     0.86636   0.96118   0.44718   0.00000  Uiso   1.00
H212   H     0.16790   0.04758   0.47011   0.00000  Uiso   1.00
H213   H     0.76643   0.15623   0.11913   0.00000  Uiso   1.00
H214   H     0.79044   0.91984   0.53200   0.00000  Uiso   1.00
H215   H     0.77781   0.25113   0.38906   0.00000  Uiso   1.00
H216   H     0.89707   0.26036   0.43521   0.00000  Uiso   1.00
H217   H     0.70668   0.31189   0.26875   0.00000  Uiso   1.00
H218   H     0.71807   0.19978   0.46455   0.00000  Uiso   1.00
H219   H     0.04754   0.24124   0.48421   0.00000  Uiso   1.00
H220   H     0.64607   0.34989   0.13322   0.00000  Uiso   1.00
H221   H     0.67008   0.11350   0.54610   0.00000  Uiso   1.00
O222   O     0.18871   0.14641   0.50720   0.00000  Uiso   1.00
O223   O     0.66199   0.28895   0.04673   0.00000  Uiso   1.00
O224   O     0.69349   0.97881   0.58841   0.00000  Uiso   1.00
N225   N     0.12321   0.09188   0.46710   0.00000  Uiso   1.00
N226   N     0.74787   0.19347   0.13896   0.00000  Uiso   1.00
N227   N     0.77029   0.97247   0.52495   0.00000  Uiso   1.00
N228   N     0.05844   0.19609   0.47469   0.00000  Uiso   1.00
N229   N     0.68310   0.29768   0.14654   0.00000  Uiso   1.00
N230   N     0.70553   0.07668   0.53253   0.00000  Uiso   1.00
C231   C     0.36182   0.75017   0.00109   0.00000  Uiso   1.00
C232   C     0.40265   0.71570   0.95971   0.00000  Uiso   1.00
C233   C     0.37235   0.69672   0.91243   0.00000  Uiso   1.00
C234   C     0.41883   0.66584   0.87992   0.00000  Uiso   1.00
C235   C     0.47094   0.61408   0.81347   0.00000  Uiso   1.00
C236   C     0.36730   0.81953   0.99248   0.00000  Uiso   1.00
C237   C     0.30728   0.88786   0.97275   0.00000  Uiso   1.00
C238   C     0.32401   0.94437   0.96784   0.00000  Uiso   1.00
C239   C     0.32125   0.05382   0.95230   0.00000  Uiso   1.00
C240   C     0.40901   0.70083   0.06915   0.00000  Uiso   1.00
C241   C     0.38405   0.66936   0.11390   0.00000  Uiso   1.00
C242   C     0.43589   0.62595   0.17355   0.00000  Uiso   1.00
C243   C     0.49788   0.55109   0.27706   0.00000  Uiso   1.00
C244   C     0.49826   0.72906   0.02746   0.00000  Uiso   1.00
C245   C     0.47676   0.70424   0.97404   0.00000  Uiso   1.00
C246   C     0.52330   0.67337   0.94160   0.00000  Uiso   1.00
C247   C     0.49307   0.65435   0.89427   0.00000  Uiso   1.00
C248   C     0.44141   0.80807   0.00680   0.00000  Uiso   1.00
C249   C     0.45823   0.86450   0.00192   0.00000  Uiso   1.00
C250   C     0.39825   0.93289   0.98218   0.00000  Uiso   1.00
C251   C     0.48312   0.68936   0.08348   0.00000  Uiso   1.00
C252   C     0.53501   0.64600   0.14307   0.00000  Uiso   1.00
C253   C     0.51013   0.61446   0.18790   0.00000  Uiso   1.00
H254   H     0.30412   0.75911   0.98994   0.00000  Uiso   1.00
H255   H     0.31499   0.70561   0.90135   0.00000  Uiso   1.00
H256   H     0.24993   0.89671   0.96167   0.00000  Uiso   1.00
H257   H     0.32669   0.67825   0.10280   0.00000  Uiso   1.00
H258   H     0.35971   0.64127   0.80944   0.00000  Uiso   1.00
H259   H     0.22254   0.04421   0.93664   0.00000  Uiso   1.00
H260   H     0.38440   0.58354   0.23424   0.00000  Uiso   1.00
H261   H     0.55596   0.72014   0.03861   0.00000  Uiso   1.00
H262   H     0.58065   0.66450   0.95269   0.00000  Uiso   1.00
H263   H     0.51559   0.85560   0.01301   0.00000  Uiso   1.00
H264   H     0.59235   0.63714   0.15414   0.00000  Uiso   1.00
H265   H     0.57533   0.60791   0.85110   0.00000  Uiso   1.00
H266   H     0.43816   0.01085   0.97831   0.00000  Uiso   1.00
H267   H     0.60002   0.55017   0.27591   0.00000  Uiso   1.00
O268   O     0.47921   0.58872   0.77286   0.00000  Uiso   1.00
O269   O     0.29925   0.11735   0.93976   0.00000  Uiso   1.00
O270   O     0.51161   0.51296   0.33020   0.00000  Uiso   1.00
N271   N     0.40707   0.64104   0.83104   0.00000  Uiso   1.00
N272   N     0.27883   0.01777   0.94996   0.00000  Uiso   1.00
N273   N     0.43015   0.58709   0.22820   0.00000  Uiso   1.00
N274   N     0.52310   0.62309   0.85346   0.00000  Uiso   1.00
N275   N     0.39485   0.99981   0.97238   0.00000  Uiso   1.00
N276   N     0.54617   0.56914   0.25062   0.00000  Uiso   1.00
C277   C     0.69483   0.44227   0.93283   0.00000  Uiso   1.00
C278   C     0.62796   0.45245   0.95633   0.00000  Uiso   1.00
C279   C     0.56212   0.45517   0.92429   0.00000  Uiso   1.00
C280   C     0.50763   0.46481   0.95379   0.00000  Uiso   1.00
C281   C     0.40213   0.47956   0.98126   0.00000  Uiso   1.00
C282   C     0.76230   0.37653   0.98381   0.00000  Uiso   1.00
C283   C     0.80942   0.31543   0.97486   0.00000  Uiso   1.00
C284   C     0.86802   0.26117   0.02750   0.00000  Uiso   1.00
C285   C     0.97112   0.15808   0.09761   0.00000  Uiso   1.00
C286   C     0.70815   0.50625   0.93332   0.00000  Uiso   1.00
C287   C     0.70977   0.55422   0.88192   0.00000  Uiso   1.00
C288   C     0.72280   0.60917   0.89204   0.00000  Uiso   1.00
C289   C     0.74183   0.70750   0.88376   0.00000  Uiso   1.00
C290   C     0.71514   0.45457   0.04222   0.00000  Uiso   1.00
C291   C     0.63899   0.45912   0.01575   0.00000  Uiso   1.00
C292   C     0.58458   0.46877   0.04531   0.00000  Uiso   1.00
C293   C     0.51867   0.47151   0.01331   0.00000  Uiso   1.00
C294   C     0.77333   0.38321   0.04323   0.00000  Uiso   1.00
C295   C     0.83188   0.32903   0.09589   0.00000  Uiso   1.00
C296   C     0.87907   0.26786   0.08702   0.00000  Uiso   1.00
C297   C     0.71918   0.51294   0.99273   0.00000  Uiso   1.00
C298   C     0.73223   0.56782   0.00294   0.00000  Uiso   1.00
C299   C     0.73385   0.61586   0.95156   0.00000  Uiso   1.00
H300   H     0.68625   0.43707   0.88658   0.00000  Uiso   1.00
H301   H     0.55361   0.44999   0.87831   0.00000  Uiso   1.00
H302   H     0.80087   0.31028   0.92888   0.00000  Uiso   1.00
H303   H     0.70123   0.54903   0.83595   0.00000  Uiso   1.00
H304   H     0.41143   0.46723   0.89535   0.00000  Uiso   1.00
H305   H     0.93281   0.17265   0.00197   0.00000  Uiso   1.00
H306   H     0.72270   0.67611   0.80601   0.00000  Uiso   1.00
H307   H     0.72372   0.45977   0.08848   0.00000  Uiso   1.00
H308   H     0.59313   0.47394   0.09129   0.00000  Uiso   1.00
H309   H     0.84040   0.33422   0.14186   0.00000  Uiso   1.00
H310   H     0.74076   0.57298   0.04893   0.00000  Uiso   1.00
H311   H     0.44351   0.48667   0.06822   0.00000  Uiso   1.00
H312   H     0.96490   0.19209   0.17484   0.00000  Uiso   1.00
H313   H     0.75478   0.69555   0.97887   0.00000  Uiso   1.00
O314   O     0.34089   0.48584   0.98000   0.00000  Uiso   1.00
O315   O     0.02494   0.09937   0.11988   0.00000  Uiso   1.00
O316   O     0.74927   0.75990   0.86278   0.00000  Uiso   1.00
N317   N     0.43689   0.46988   0.93564   0.00000  Uiso   1.00
N318   N     0.92435   0.19446   0.03533   0.00000  Uiso   1.00
N319   N     0.72793   0.66514   0.85212   0.00000  Uiso   1.00
N320   N     0.45415   0.48034   0.02866   0.00000  Uiso   1.00
N321   N     0.94161   0.20492   0.12835   0.00000  Uiso   1.00
N322   N     0.74520   0.67560   0.94514   0.00000  Uiso   1.00
C323   C     0.94107   0.22361   0.61208   0.00000  Uiso   1.00
C324   C     0.94298   0.15330   0.61037   0.00000  Uiso   1.00
C325   C     0.00299   0.09577   0.60752   0.00000  Uiso   1.00
C326   C     0.99366   0.03627   0.60636   0.00000  Uiso   1.00
C327   C     0.00683   0.92736   0.60350   0.00000  Uiso   1.00
C328   C     0.92214   0.23207   0.67143   0.00000  Uiso   1.00
C329   C     0.96463   0.24078   0.71993   0.00000  Uiso   1.00
C330   C     0.93775   0.24760   0.77017   0.00000  Uiso   1.00
C331   C     0.91854   0.26103   0.86209   0.00000  Uiso   1.00
C332   C     0.87359   0.28316   0.55648   0.00000  Uiso   1.00
C333   C     0.87525   0.33484   0.50833   0.00000  Uiso   1.00
C334   C     0.80749   0.38469   0.46179   0.00000  Uiso   1.00
C335   C     0.71290   0.47744   0.37523   0.00000  Uiso   1.00
C336   C     0.81778   0.22024   0.61507   0.00000  Uiso   1.00
C337   C     0.87601   0.15147   0.61200   0.00000  Uiso   1.00
C338   C     0.86659   0.09204   0.61083   0.00000  Uiso   1.00
C339   C     0.92657   0.03444   0.60799   0.00000  Uiso   1.00
C340   C     0.85518   0.23024   0.67306   0.00000  Uiso   1.00
C341   C     0.82823   0.23705   0.72324   0.00000  Uiso   1.00
C342   C     0.87066   0.24577   0.77180   0.00000  Uiso   1.00
C343   C     0.80663   0.28133   0.55811   0.00000  Uiso   1.00
C344   C     0.73885   0.33111   0.51164   0.00000  Uiso   1.00
C345   C     0.74040   0.38285   0.46342   0.00000  Uiso   1.00
H346   H     0.99320   0.22504   0.61081   0.00000  Uiso   1.00
H347   H     0.05481   0.09721   0.60627   0.00000  Uiso   1.00
H348   H     0.01644   0.24221   0.71865   0.00000  Uiso   1.00
H349   H     0.92708   0.33624   0.50709   0.00000  Uiso   1.00
H350   H     0.09359   0.95467   0.60198   0.00000  Uiso   1.00
H351   H     0.01269   0.26042   0.83893   0.00000  Uiso   1.00
H352   H     0.82424   0.45872   0.39280   0.00000  Uiso   1.00
H353   H     0.76564   0.21882   0.61633   0.00000  Uiso   1.00
H354   H     0.81476   0.09064   0.61209   0.00000  Uiso   1.00
H355   H     0.77640   0.23563   0.72448   0.00000  Uiso   1.00
H356   H     0.68704   0.32967   0.51291   0.00000  Uiso   1.00
H357   H     0.89876   0.94933   0.60671   0.00000  Uiso   1.00
H358   H     0.81786   0.25509   0.84366   0.00000  Uiso   1.00
H359   H     0.62942   0.45339   0.39753   0.00000  Uiso   1.00
O360   O     0.03260   0.86779   0.60148   0.00000  Uiso   1.00
O361   O     0.92645   0.26894   0.91234   0.00000  Uiso   1.00
O362   O     0.67923   0.52910   0.32703   0.00000  Uiso   1.00
N363   N     0.04099   0.97101   0.60366   0.00000  Uiso   1.00
N364   N     0.96536   0.25686   0.82520   0.00000  Uiso   1.00
N365   N     0.78918   0.44226   0.40812   0.00000  Uiso   1.00
N366   N     0.93615   0.96814   0.60620   0.00000  Uiso   1.00
N367   N     0.86052   0.25399   0.82775   0.00000  Uiso   1.00
N368   N     0.68434   0.43939   0.41066   0.00000  Uiso   1.00
C369   C     0.46893   0.07777   0.83508   0.00000  Uiso   1.00
C370   C     0.52470   0.01144   0.89276   0.00000  Uiso   1.00
C371   C     0.55157   0.01106   0.95272   0.00000  Uiso   1.00
C372   C     0.60226   0.94484   0.99914   0.00000  Uiso   1.00
C373   C     0.68534   0.85152   0.09071   0.00000  Uiso   1.00
C374   C     0.40388   0.06356   0.81149   0.00000  Uiso   1.00
C375   C     0.32917   0.10700   0.80311   0.00000  Uiso   1.00
C376   C     0.27816   0.08466   0.78110   0.00000  Uiso   1.00
C377   C     0.17366   0.07227   0.74646   0.00000  Uiso   1.00
C378   C     0.50716   0.07817   0.78441   0.00000  Uiso   1.00
C379   C     0.51926   0.13391   0.75324   0.00000  Uiso   1.00
C380   C     0.55519   0.12387   0.70843   0.00000  Uiso   1.00
C381   C     0.61103   0.13417   0.63174   0.00000  Uiso   1.00
C382   C     0.51118   0.96084   0.81089   0.00000  Uiso   1.00
C383   C     0.54765   0.94794   0.87962   0.00000  Uiso   1.00
C384   C     0.59831   0.88170   0.92596   0.00000  Uiso   1.00
C385   C     0.62526   0.88122   0.98598   0.00000  Uiso   1.00
C386   C     0.42683   0.00005   0.79836   0.00000  Uiso   1.00
C387   C     0.37592   0.97764   0.77635   0.00000  Uiso   1.00
C388   C     0.30115   0.02103   0.76794   0.00000  Uiso   1.00
C389   C     0.53011   0.01466   0.77128   0.00000  Uiso   1.00
C390   C     0.56601   0.00454   0.72649   0.00000  Uiso   1.00
C391   C     0.57817   0.06025   0.69527   0.00000  Uiso   1.00
H392   H     0.45106   0.12721   0.84530   0.00000  Uiso   1.00
H393   H     0.53379   0.06022   0.96287   0.00000  Uiso   1.00
H394   H     0.31143   0.15615   0.81327   0.00000  Uiso   1.00
H395   H     0.50150   0.18304   0.76342   0.00000  Uiso   1.00
H396   H     0.63561   0.95794   0.08742   0.00000  Uiso   1.00
H397   H     0.16675   0.16022   0.77197   0.00000  Uiso   1.00
H398   H     0.56754   0.21694   0.66685   0.00000  Uiso   1.00
H399   H     0.52905   0.91140   0.80067   0.00000  Uiso   1.00
H400   H     0.61606   0.83256   0.91578   0.00000  Uiso   1.00
H401   H     0.39369   0.92849   0.76619   0.00000  Uiso   1.00
H402   H     0.58376   0.95539   0.71634   0.00000  Uiso   1.00
H403   H     0.70238   0.77316   0.04921   0.00000  Uiso   1.00
H404   H     0.23351   0.97545   0.73376   0.00000  Uiso   1.00
H405   H     0.63431   0.03216   0.62864   0.00000  Uiso   1.00
O406   O     0.72481   0.81758   0.14485   0.00000  Uiso   1.00
O407   O     0.10967   0.08298   0.73098   0.00000  Uiso   1.00
O408   O     0.63551   0.15739   0.59307   0.00000  Uiso   1.00
N409   N     0.63940   0.92527   0.06262   0.00000  Uiso   1.00
N410   N     0.20103   0.11439   0.76771   0.00000  Uiso   1.00
N411   N     0.57572   0.16742   0.66942   0.00000  Uiso   1.00
N412   N     0.67533   0.82585   0.04206   0.00000  Uiso   1.00
N413   N     0.23696   0.01496   0.74715   0.00000  Uiso   1.00
N414   N     0.61165   0.06800   0.64886   0.00000  Uiso   1.00
C415   C     0.08274   0.81311   0.33506   0.00000  Uiso   1.00
C416   C     0.15553   0.74249   0.36476   0.00000  Uiso   1.00
C417   C     0.17913   0.68936   0.33892   0.00000  Uiso   1.00
C418   C     0.24746   0.62873   0.37345   0.00000  Uiso   1.00
C419   C     0.35390   0.52016   0.41071   0.00000  Uiso   1.00
C420   C     0.04170   0.81533   0.38382   0.00000  Uiso   1.00
C421   C     0.96960   0.82345   0.37399   0.00000  Uiso   1.00
C422   C     0.94210   0.82415   0.42456   0.00000  Uiso   1.00
C423   C     0.87181   0.82872   0.49139   0.00000  Uiso   1.00
C424   C     0.10537   0.87245   0.33014   0.00000  Uiso   1.00
C425   C     0.08678   0.92862   0.27518   0.00000  Uiso   1.00
C426   C     0.11287   0.97743   0.28057   0.00000  Uiso   1.00
C427   C     0.14143   0.07069   0.26406   0.00000  Uiso   1.00
C428   C     0.16210   0.79991   0.44236   0.00000  Uiso   1.00
C429   C     0.19863   0.73532   0.42304   0.00000  Uiso   1.00
C430   C     0.26694   0.67476   0.45762   0.00000  Uiso   1.00
C431   C     0.29064   0.62155   0.43183   0.00000  Uiso   1.00
C432   C     0.08481   0.80816   0.44209   0.00000  Uiso   1.00
C433   C     0.05740   0.80886   0.49269   0.00000  Uiso   1.00
C434   C     0.98528   0.81697   0.48294   0.00000  Uiso   1.00
C435   C     0.14848   0.86529   0.38842   0.00000  Uiso   1.00
C436   C     0.17459   0.91402   0.39389   0.00000  Uiso   1.00
C437   C     0.15605   0.97025   0.33895   0.00000  Uiso   1.00
H438   H     0.04918   0.81869   0.28970   0.00000  Uiso   1.00
H439   H     0.14575   0.69492   0.29382   0.00000  Uiso   1.00
H440   H     0.93625   0.82900   0.32888   0.00000  Uiso   1.00
H441   H     0.05342   0.93415   0.23010   0.00000  Uiso   1.00
H442   H     0.27183   0.55454   0.32410   0.00000  Uiso   1.00
H443   H     0.83007   0.83728   0.39803   0.00000  Uiso   1.00
H444   H     0.07714   0.05901   0.18972   0.00000  Uiso   1.00
H445   H     0.19566   0.79434   0.48773   0.00000  Uiso   1.00
H446   H     0.30029   0.66923   0.50272   0.00000  Uiso   1.00
H447   H     0.09078   0.80331   0.53778   0.00000  Uiso   1.00
H448   H     0.20795   0.90846   0.43900   0.00000  Uiso   1.00
H449   H     0.39725   0.53369   0.49365   0.00000  Uiso   1.00
H450   H     0.95548   0.81643   0.56758   0.00000  Uiso   1.00
H451   H     0.20256   0.03816   0.35927   0.00000  Uiso   1.00
O452   O     0.40071   0.46225   0.41517   0.00000  Uiso   1.00
O453   O     0.82113   0.83320   0.51216   0.00000  Uiso   1.00
O454   O     0.14529   0.12410   0.23886   0.00000  Uiso   1.00
N455   N     0.28700   0.56681   0.36194   0.00000  Uiso   1.00
N456   N     0.87398   0.83114   0.43106   0.00000  Uiso   1.00
N457   N     0.10496   0.03845   0.23631   0.00000  Uiso   1.00
N458   N     0.35448   0.55559   0.45318   0.00000  Uiso   1.00
N459   N     0.94147   0.81992   0.52230   0.00000  Uiso   1.00
N460   N     0.17244   0.02723   0.32755   0.00000  Uiso   1.00
C461   C     0.04852   0.77507   0.89899   0.00000  Uiso   1.00
C462   C     0.01533   0.73222   0.87314   0.00000  Uiso   1.00
C463   C     0.93973   0.75114   0.85315   0.00000  Uiso   1.00
C464   C     0.92072   0.70475   0.83107   0.00000  Uiso   1.00
C465   C     0.86086   0.64778   0.79126   0.00000  Uiso   1.00
C466   C     0.10501   0.72394   0.96394   0.00000  Uiso   1.00
C467   C     0.10480   0.73592   0.02028   0.00000  Uiso   1.00
C468   C     0.16130   0.68257   0.07463   0.00000  Uiso   1.00
C469   C     0.24069   0.61277   0.17577   0.00000  Uiso   1.00
C470   C     0.09424   0.78953   0.85740   0.00000  Uiso   1.00
C471   C     0.08501   0.85666   0.82418   0.00000  Uiso   1.00
C472   C     0.13245   0.85853   0.78885   0.00000  Uiso   1.00
C473   C     0.19514   0.89057   0.72458   0.00000  Uiso   1.00
C474   C     0.14922   0.65903   0.89534   0.00000  Uiso   1.00
C475   C     0.07002   0.66918   0.87116   0.00000  Uiso   1.00
C476   C     0.05113   0.62275   0.84910   0.00000  Uiso   1.00
C477   C     0.97551   0.64161   0.82908   0.00000  Uiso   1.00
C478   C     0.15970   0.66091   0.96195   0.00000  Uiso   1.00
C479   C     0.21621   0.60753   0.01623   0.00000  Uiso   1.00
C480   C     0.21609   0.61942   0.07264   0.00000  Uiso   1.00
C481   C     0.14893   0.72650   0.85542   0.00000  Uiso   1.00
C482   C     0.19641   0.72826   0.82014   0.00000  Uiso   1.00
C483   C     0.18724   0.79538   0.78686   0.00000  Uiso   1.00
H484   H     0.00595   0.82414   0.90054   0.00000  Uiso   1.00
H485   H     0.89742   0.79993   0.85469   0.00000  Uiso   1.00
H486   H     0.06248   0.78471   0.02180   0.00000  Uiso   1.00
H487   H     0.04268   0.90542   0.82573   0.00000  Uiso   1.00
H488   H     0.80121   0.74526   0.80301   0.00000  Uiso   1.00
H489   H     0.14926   0.71319   0.15535   0.00000  Uiso   1.00
H490   H     0.10752   0.96774   0.74190   0.00000  Uiso   1.00
H491   H     0.19180   0.60995   0.89380   0.00000  Uiso   1.00
H492   H     0.09346   0.57398   0.84757   0.00000  Uiso   1.00
H493   H     0.25852   0.55876   0.01468   0.00000  Uiso   1.00
H494   H     0.23872   0.67948   0.81861   0.00000  Uiso   1.00
H495   H     0.96033   0.56187   0.79724   0.00000  Uiso   1.00
H496   H     0.30838   0.52980   0.14958   0.00000  Uiso   1.00
H497   H     0.26664   0.78435   0.73613   0.00000  Uiso   1.00
O498   O     0.81273   0.63376   0.76986   0.00000  Uiso   1.00
O499   O     0.26937   0.59168   0.23211   0.00000  Uiso   1.00
O500   O     0.21460   0.92565   0.68968   0.00000  Uiso   1.00
N501   N     0.85216   0.70705   0.80798   0.00000  Uiso   1.00
N502   N     0.17756   0.67705   0.13740   0.00000  Uiso   1.00
N503   N     0.13854   0.91504   0.75088   0.00000  Uiso   1.00
N504   N     0.93778   0.60837   0.80487   0.00000  Uiso   1.00
N505   N     0.26318   0.57837   0.13429   0.00000  Uiso   1.00
N506   N     0.22416   0.81636   0.74777   0.00000  Uiso   1.00
C507   C     0.54378   0.15426   0.19154   0.00000  Uiso   1.00
C508   C     0.51562   0.13278   0.24595   0.00000  Uiso   1.00
C509   C     0.51047   0.16115   0.29357   0.00000  Uiso   1.00
C510   C     0.48330   0.13435   0.33904   0.00000  Uiso   1.00
C511   C     0.44284   0.10907   0.42387   0.00000  Uiso   1.00
C512   C     0.60805   0.08519   0.19479   0.00000  Uiso   1.00
C513   C     0.68060   0.07355   0.19940   0.00000  Uiso   1.00
C514   C     0.73123   0.00670   0.20179   0.00000  Uiso   1.00
C515   C     0.83425   0.90755   0.20715   0.00000  Uiso   1.00
C516   C     0.48090   0.17761   0.13117   0.00000  Uiso   1.00
C517   C     0.44656   0.24369   0.08226   0.00000  Uiso   1.00
C518   C     0.39016   0.25464   0.03108   0.00000  Uiso   1.00
C519   C     0.29576   0.29901   0.93765   0.00000  Uiso   1.00
C520   C     0.50469   0.05622   0.18758   0.00000  Uiso   1.00
C521   C     0.49439   0.07952   0.24380   0.00000  Uiso   1.00
C522   C     0.46722   0.05268   0.28920   0.00000  Uiso   1.00
C523   C     0.46202   0.08100   0.33688   0.00000  Uiso   1.00
C524   C     0.58682   0.03194   0.19264   0.00000  Uiso   1.00
C525   C     0.63735   0.96508   0.19502   0.00000  Uiso   1.00
C526   C     0.70996   0.95335   0.19963   0.00000  Uiso   1.00
C527   C     0.45967   0.12436   0.12902   0.00000  Uiso   1.00
C528   C     0.40331   0.13522   0.07789   0.00000  Uiso   1.00
C529   C     0.36889   0.20129   0.02892   0.00000  Uiso   1.00
H530   H     0.56032   0.19571   0.19321   0.00000  Uiso   1.00
H531   H     0.52691   0.20235   0.29522   0.00000  Uiso   1.00
H532   H     0.69701   0.11478   0.20105   0.00000  Uiso   1.00
H533   H     0.46301   0.28488   0.08394   0.00000  Uiso   1.00
H534   H     0.48054   0.18621   0.40739   0.00000  Uiso   1.00
H535   H     0.83920   0.00156   0.20881   0.00000  Uiso   1.00
H536   H     0.34576   0.36026   0.96185   0.00000  Uiso   1.00
H537   H     0.48816   0.01475   0.18591   0.00000  Uiso   1.00
H538   H     0.45079   0.01147   0.28752   0.00000  Uiso   1.00
H539   H     0.62090   0.92389   0.19335   0.00000  Uiso   1.00
H540   H     0.38689   0.09399   0.07624   0.00000  Uiso   1.00
H541   H     0.41876   0.03128   0.40114   0.00000  Uiso   1.00
H542   H     0.77742   0.84663   0.20255   0.00000  Uiso   1.00
H543   H     0.28398   0.20533   0.95560   0.00000  Uiso   1.00
O544   O     0.42639   0.10983   0.47126   0.00000  Uiso   1.00
O545   O     0.89694   0.86758   0.21071   0.00000  Uiso   1.00
O546   O     0.24955   0.33819   0.88671   0.00000  Uiso   1.00
N547   N     0.47111   0.15021   0.39197   0.00000  Uiso   1.00
N548   N     0.80644   0.97757   0.20631   0.00000  Uiso   1.00
N549   N     0.34513   0.31292   0.97543   0.00000  Uiso   1.00
N550   N     0.43787   0.06684   0.38861   0.00000  Uiso   1.00
N551   N     0.77320   0.89420   0.20295   0.00000  Uiso   1.00
N552   N     0.31188   0.22955   0.97206   0.00000  Uiso   1.00
