data_job_06106
_audit_creation_date              2018-12-19
_audit_creation_method            'Materials Studio'
_symmetry_space_group_name_H-M    'P1'
_symmetry_Int_Tables_number       1
_symmetry_cell_setting            triclinic
loop_
_symmetry_equiv_pos_as_xyz
  x,y,z
_cell_length_a                    16.2284
_cell_length_b                    16.0763
_cell_length_c                    15.5354
_cell_angle_alpha                 85.7948
_cell_angle_beta                  85.5544
_cell_angle_gamma                 84.2757
loop_
_atom_site_label
_atom_site_type_symbol
_atom_site_fract_x
_atom_site_fract_y
_atom_site_fract_z
_atom_site_U_iso_or_equiv
_atom_site_adp_type
_atom_site_occupancy
C1     C     0.35966   0.08621   0.68189   0.00000  Uiso   1.00
C2     C     0.43546   0.12358   0.63631   0.00000  Uiso   1.00
C3     C     0.51562   0.08430   0.63028   0.00000  Uiso   1.00
C4     C     0.57635   0.12902   0.58587   0.00000  Uiso   1.00
C5     C     0.69692   0.17473   0.52076   0.00000  Uiso   1.00
C6     C     0.32382   0.14769   0.74841   0.00000  Uiso   1.00
C7     C     0.31011   0.12868   0.83663   0.00000  Uiso   1.00
C8     C     0.27685   0.19370   0.88658   0.00000  Uiso   1.00
C9     C     0.22404   0.27684   0.99551   0.00000  Uiso   1.00
C10    C     0.29593   0.08965   0.61425   0.00000  Uiso   1.00
C11    C     0.25875   0.02184   0.58968   0.00000  Uiso   1.00
C12    C     0.20201   0.03801   0.52669   0.00000  Uiso   1.00
C13    C     0.10590   0.03102   0.42731   0.00000  Uiso   1.00
C14    C     0.32497   0.23549   0.61374   0.00000  Uiso   1.00
C15    C     0.41661   0.20466   0.59930   0.00000  Uiso   1.00
C16    C     0.47724   0.24946   0.55488   0.00000  Uiso   1.00
C17    C     0.55748   0.21025   0.54878   0.00000  Uiso   1.00
C18    C     0.30497   0.22878   0.71140   0.00000  Uiso   1.00
C19    C     0.27172   0.29384   0.76123   0.00000  Uiso   1.00
C20    C     0.25797   0.27494   0.84950   0.00000  Uiso   1.00
C21    C     0.27709   0.17074   0.57723   0.00000  Uiso   1.00
C22    C     0.22038   0.18701   0.51428   0.00000  Uiso   1.00
C23    C     0.18313   0.11924   0.48961   0.00000  Uiso   1.00
H24    H     0.37432   0.02308   0.71071   0.00000  Uiso   1.00
H25    H     0.53018   0.02155   0.65894   0.00000  Uiso   1.00
H26    H     0.32468   0.06593   0.86525   0.00000  Uiso   1.00
H27    H     0.27335   0.95911   0.61834   0.00000  Uiso   1.00
H28    H     0.69466   0.05562   0.58524   0.00000  Uiso   1.00
H29    H     0.26135   0.14918   0.02027   0.00000  Uiso   1.00
H30    H     0.15309   0.92393   0.49960   0.00000  Uiso   1.00
H31    H     0.31030   0.29862   0.58492   0.00000  Uiso   1.00
H32    H     0.46264   0.31221   0.52624   0.00000  Uiso   1.00
H33    H     0.25715   0.35658   0.73256   0.00000  Uiso   1.00
H34    H     0.20581   0.24976   0.48565   0.00000  Uiso   1.00
H35    H     0.63985   0.29153   0.47755   0.00000  Uiso   1.00
H36    H     0.20653   0.38509   0.91257   0.00000  Uiso   1.00
H37    H     0.09828   0.15984   0.39190   0.00000  Uiso   1.00
O38    O     0.76863   0.17755   0.49509   0.00000  Uiso   1.00
O39    O     0.20012   0.30030   0.06582   0.00000  Uiso   1.00
O40    O     0.05811   0.00477   0.38272   0.00000  Uiso   1.00
N41    N     0.66085   0.10927   0.56793   0.00000  Uiso   1.00
N42    N     0.25574   0.19675   0.97466   0.00000  Uiso   1.00
N43    N     0.15452   0.98616   0.48789   0.00000  Uiso   1.00
N44    N     0.63136   0.23621   0.50998   0.00000  Uiso   1.00
N45    N     0.22624   0.32369   0.91671   0.00000  Uiso   1.00
N46    N     0.12502   0.11310   0.42994   0.00000  Uiso   1.00
C47    C     0.67331   0.35907   0.08854   0.00000  Uiso   1.00
C48    C     0.62778   0.43627   0.12826   0.00000  Uiso   1.00
C49    C     0.62098   0.51680   0.08903   0.00000  Uiso   1.00
C50    C     0.57677   0.57886   0.13609   0.00000  Uiso   1.00
C51    C     0.51160   0.70146   0.18511   0.00000  Uiso   1.00
C52    C     0.73690   0.32323   0.15202   0.00000  Uiso   1.00
C53    C     0.82184   0.30871   0.13276   0.00000  Uiso   1.00
C54    C     0.86948   0.27561   0.19982   0.00000  Uiso   1.00
C55    C     0.97372   0.22266   0.28571   0.00000  Uiso   1.00
C56    C     0.60973   0.29511   0.09043   0.00000  Uiso   1.00
C57    C     0.58775   0.25693   0.01939   0.00000  Uiso   1.00
C58    C     0.52833   0.20014   0.03460   0.00000  Uiso   1.00
C59    C     0.43511   0.10353   0.02485   0.00000  Uiso   1.00
C60    C     0.60689   0.32609   0.24187   0.00000  Uiso   1.00
C61    C     0.59171   0.41835   0.21154   0.00000  Uiso   1.00
C62    C     0.54749   0.48031   0.25867   0.00000  Uiso   1.00
C63    C     0.54062   0.56092   0.21952   0.00000  Uiso   1.00
C64    C     0.70083   0.30532   0.23530   0.00000  Uiso   1.00
C65    C     0.74836   0.27222   0.30240   0.00000  Uiso   1.00
C66    C     0.83334   0.25766   0.28325   0.00000  Uiso   1.00
C67    C     0.57365   0.27720   0.17371   0.00000  Uiso   1.00
C68    C     0.51426   0.22044   0.18903   0.00000  Uiso   1.00
C69    C     0.49219   0.18219   0.11803   0.00000  Uiso   1.00
H70    H     0.70140   0.37302   0.02371   0.00000  Uiso   1.00
H71    H     0.64891   0.53064   0.02458   0.00000  Uiso   1.00
H72    H     0.84974   0.32258   0.06831   0.00000  Uiso   1.00
H73    H     0.61568   0.27081   0.95495   0.00000  Uiso   1.00
H74    H     0.57484   0.69750   0.06229   0.00000  Uiso   1.00
H75    H     0.99829   0.25876   0.15448   0.00000  Uiso   1.00
H76    H     0.50473   0.14960   0.91544   0.00000  Uiso   1.00
H77    H     0.57880   0.31214   0.30671   0.00000  Uiso   1.00
H78    H     0.51958   0.46643   0.32312   0.00000  Uiso   1.00
H79    H     0.72042   0.25836   0.36684   0.00000  Uiso   1.00
H80    H     0.48636   0.20660   0.25348   0.00000  Uiso   1.00
H81    H     0.46987   0.64538   0.30460   0.00000  Uiso   1.00
H82    H     0.89333   0.20664   0.39678   0.00000  Uiso   1.00
H83    H     0.39977   0.09748   0.15775   0.00000  Uiso   1.00
O84    O     0.48564   0.77404   0.18914   0.00000  Uiso   1.00
O85    O     0.04119   0.19842   0.31007   0.00000  Uiso   1.00
O86    O     0.39365   0.05520   0.99647   0.00000  Uiso   1.00
N87    N     0.55824   0.66406   0.11706   0.00000  Uiso   1.00
N88    N     0.95415   0.25388   0.20325   0.00000  Uiso   1.00
N89    N     0.49273   0.15180   0.97978   0.00000  Uiso   1.00
N90    N     0.50177   0.63601   0.24744   0.00000  Uiso   1.00
N91    N     0.89767   0.22583   0.33363   0.00000  Uiso   1.00
N92    N     0.43625   0.12375   0.11016   0.00000  Uiso   1.00
C93    C     0.08449   0.67553   0.36316   0.00000  Uiso   1.00
C94    C     0.12241   0.63023   0.44251   0.00000  Uiso   1.00
C95    C     0.08400   0.62448   0.52542   0.00000  Uiso   1.00
C96    C     0.12911   0.58030   0.58920   0.00000  Uiso   1.00
C97    C     0.17576   0.51563   0.71524   0.00000  Uiso   1.00
C98    C     0.14449   0.73902   0.32772   0.00000  Uiso   1.00
C99    C     0.12462   0.82472   0.31410   0.00000  Uiso   1.00
C100   C     0.18832   0.87210   0.28123   0.00000  Uiso   1.00
C101   C     0.26921   0.97631   0.22900   0.00000  Uiso   1.00
C102   C     0.08828   0.61060   0.29582   0.00000  Uiso   1.00
C103   C     0.02117   0.58834   0.25537   0.00000  Uiso   1.00
C104   C     0.03755   0.52762   0.19562   0.00000  Uiso   1.00
C105   C     0.03118   0.43245   0.09387   0.00000  Uiso   1.00
C106   C     0.23292   0.60730   0.32897   0.00000  Uiso   1.00
C107   C     0.20304   0.59318   0.42394   0.00000  Uiso   1.00
C108   C     0.24822   0.54899   0.48760   0.00000  Uiso   1.00
C109   C     0.20988   0.54316   0.57059   0.00000  Uiso   1.00
C110   C     0.22510   0.70196   0.30915   0.00000  Uiso   1.00
C111   C     0.28884   0.74922   0.27628   0.00000  Uiso   1.00
C112   C     0.26908   0.83498   0.26263   0.00000  Uiso   1.00
C113   C     0.16890   0.57353   0.27725   0.00000  Uiso   1.00
C114   C     0.18539   0.51284   0.21755   0.00000  Uiso   1.00
C115   C     0.11832   0.49049   0.17702   0.00000  Uiso   1.00
H116   H     0.02172   0.70439   0.37761   0.00000  Uiso   1.00
H117   H     0.02161   0.65318   0.53977   0.00000  Uiso   1.00
H118   H     0.06223   0.85338   0.32847   0.00000  Uiso   1.00
H119   H     0.95879   0.61703   0.26975   0.00000  Uiso   1.00
H120   H     0.05705   0.58008   0.71137   0.00000  Uiso   1.00
H121   H     0.14268   0.00221   0.26581   0.00000  Uiso   1.00
H122   H     0.92457   0.50384   0.14198   0.00000  Uiso   1.00
H123   H     0.29569   0.57845   0.31451   0.00000  Uiso   1.00
H124   H     0.31061   0.52031   0.47321   0.00000  Uiso   1.00
H125   H     0.35122   0.72052   0.26192   0.00000  Uiso   1.00
H126   H     0.24779   0.48418   0.20320   0.00000  Uiso   1.00
H127   H     0.29161   0.47224   0.65735   0.00000  Uiso   1.00
H128   H     0.37725   0.89438   0.21179   0.00000  Uiso   1.00
H129   H     0.15913   0.39600   0.08797   0.00000  Uiso   1.00
O130   O     0.17922   0.49021   0.78990   0.00000  Uiso   1.00
O131   O     0.29156   0.04404   0.20533   0.00000  Uiso   1.00
O132   O     0.00540   0.39018   0.04288   0.00000  Uiso   1.00
N133   N     0.11020   0.56266   0.67687   0.00000  Uiso   1.00
N134   N     0.19027   0.95734   0.26032   0.00000  Uiso   1.00
N135   N     0.98635   0.49141   0.14453   0.00000  Uiso   1.00
N136   N     0.23642   0.50463   0.64781   0.00000  Uiso   1.00
N137   N     0.31648   0.89931   0.23125   0.00000  Uiso   1.00
N138   N     0.11257   0.43339   0.11547   0.00000  Uiso   1.00
C139   C     0.64034   0.91379   0.31811   0.00000  Uiso   1.00
C140   C     0.56454   0.87642   0.36369   0.00000  Uiso   1.00
C141   C     0.48438   0.91570   0.36972   0.00000  Uiso   1.00
C142   C     0.42365   0.87098   0.41413   0.00000  Uiso   1.00
C143   C     0.30308   0.82527   0.47924   0.00000  Uiso   1.00
C144   C     0.67618   0.85230   0.25159   0.00000  Uiso   1.00
C145   C     0.68989   0.87132   0.16337   0.00000  Uiso   1.00
C146   C     0.72315   0.80629   0.11342   0.00000  Uiso   1.00
C147   C     0.77596   0.72316   0.00449   0.00000  Uiso   1.00
C148   C     0.70407   0.91035   0.38575   0.00000  Uiso   1.00
C149   C     0.74124   0.97816   0.41032   0.00000  Uiso   1.00
C150   C     0.79799   0.96200   0.47331   0.00000  Uiso   1.00
C151   C     0.89410   0.96898   0.57269   0.00000  Uiso   1.00
C152   C     0.67503   0.76451   0.38626   0.00000  Uiso   1.00
C153   C     0.58339   0.79533   0.40070   0.00000  Uiso   1.00
C154   C     0.52276   0.75054   0.44512   0.00000  Uiso   1.00
C155   C     0.44252   0.78975   0.45122   0.00000  Uiso   1.00
C156   C     0.69503   0.77122   0.28860   0.00000  Uiso   1.00
C157   C     0.72827   0.70616   0.23877   0.00000  Uiso   1.00
C158   C     0.74203   0.72506   0.15050   0.00000  Uiso   1.00
C159   C     0.72291   0.82926   0.42277   0.00000  Uiso   1.00
C160   C     0.77962   0.81299   0.48572   0.00000  Uiso   1.00
C161   C     0.81687   0.88076   0.51039   0.00000  Uiso   1.00
H162   H     0.62567   0.97692   0.28929   0.00000  Uiso   1.00
H163   H     0.46982   0.97845   0.34106   0.00000  Uiso   1.00
H164   H     0.67531   0.93407   0.13475   0.00000  Uiso   1.00
H165   H     0.72665   0.04089   0.38166   0.00000  Uiso   1.00
H166   H     0.30534   0.94438   0.41476   0.00000  Uiso   1.00
H167   H     0.73865   0.85082   0.97973   0.00000  Uiso   1.00
H168   H     0.84690   0.07607   0.50040   0.00000  Uiso   1.00
H169   H     0.68970   0.70138   0.41508   0.00000  Uiso   1.00
H170   H     0.53736   0.68779   0.47376   0.00000  Uiso   1.00
H171   H     0.74285   0.64342   0.26744   0.00000  Uiso   1.00
H172   H     0.79419   0.75024   0.51435   0.00000  Uiso   1.00
H173   H     0.36015   0.70847   0.52245   0.00000  Uiso   1.00
H174   H     0.79347   0.61491   0.08743   0.00000  Uiso   1.00
H175   H     0.90172   0.84016   0.60810   0.00000  Uiso   1.00
O176   O     0.23137   0.82245   0.50491   0.00000  Uiso   1.00
O177   O     0.79988   0.69970   0.93418   0.00000  Uiso   1.00
O178   O     0.94189   0.99523   0.61728   0.00000  Uiso   1.00
N179   N     0.33915   0.89073   0.43207   0.00000  Uiso   1.00
N180   N     0.74426   0.80325   0.02534   0.00000  Uiso   1.00
N181   N     0.84548   0.01384   0.51211   0.00000  Uiso   1.00
N182   N     0.36864   0.76379   0.49002   0.00000  Uiso   1.00
N183   N     0.77375   0.67631   0.08329   0.00000  Uiso   1.00
N184   N     0.87498   0.88690   0.57006   0.00000  Uiso   1.00
C185   C     0.32669   0.64093   0.91146   0.00000  Uiso   1.00
C186   C     0.37222   0.56373   0.87174   0.00000  Uiso   1.00
C187   C     0.37902   0.48320   0.91097   0.00000  Uiso   1.00
C188   C     0.42323   0.42114   0.86391   0.00000  Uiso   1.00
C189   C     0.48840   0.29853   0.81489   0.00000  Uiso   1.00
C190   C     0.26310   0.67677   0.84798   0.00000  Uiso   1.00
C191   C     0.17816   0.69129   0.86724   0.00000  Uiso   1.00
C192   C     0.13052   0.72439   0.80018   0.00000  Uiso   1.00
C193   C     0.02628   0.77734   0.71429   0.00000  Uiso   1.00
C194   C     0.39027   0.70489   0.90957   0.00000  Uiso   1.00
C195   C     0.41225   0.74307   0.98061   0.00000  Uiso   1.00
C196   C     0.47167   0.79986   0.96540   0.00000  Uiso   1.00
C197   C     0.56489   0.89647   0.97515   0.00000  Uiso   1.00
C198   C     0.39311   0.67391   0.75813   0.00000  Uiso   1.00
C199   C     0.40829   0.58165   0.78846   0.00000  Uiso   1.00
C200   C     0.45251   0.51969   0.74133   0.00000  Uiso   1.00
C201   C     0.45938   0.43908   0.78048   0.00000  Uiso   1.00
C202   C     0.29917   0.69468   0.76470   0.00000  Uiso   1.00
C203   C     0.25164   0.72778   0.69760   0.00000  Uiso   1.00
C204   C     0.16666   0.74234   0.71675   0.00000  Uiso   1.00
C205   C     0.42635   0.72280   0.82629   0.00000  Uiso   1.00
C206   C     0.48574   0.77955   0.81097   0.00000  Uiso   1.00
C207   C     0.50781   0.81781   0.88197   0.00000  Uiso   1.00
H208   H     0.29860   0.62698   0.97629   0.00000  Uiso   1.00
H209   H     0.35109   0.46936   0.97542   0.00000  Uiso   1.00
H210   H     0.15026   0.67742   0.93169   0.00000  Uiso   1.00
H211   H     0.38432   0.72919   0.04505   0.00000  Uiso   1.00
H212   H     0.42516   0.30250   0.93771   0.00000  Uiso   1.00
H213   H     0.00171   0.74124   0.84552   0.00000  Uiso   1.00
H214   H     0.49527   0.85040   0.08456   0.00000  Uiso   1.00
H215   H     0.42120   0.68786   0.69329   0.00000  Uiso   1.00
H216   H     0.48041   0.53357   0.67688   0.00000  Uiso   1.00
H217   H     0.27958   0.74164   0.63316   0.00000  Uiso   1.00
H218   H     0.51364   0.79340   0.74651   0.00000  Uiso   1.00
H219   H     0.53012   0.35462   0.69540   0.00000  Uiso   1.00
H220   H     0.10667   0.79336   0.60322   0.00000  Uiso   1.00
H221   H     0.60023   0.90252   0.84225   0.00000  Uiso   1.00
O222   O     0.51436   0.22596   0.81086   0.00000  Uiso   1.00
O223   O     0.95881   0.80158   0.68993   0.00000  Uiso   1.00
O224   O     0.60635   0.94480   0.00353   0.00000  Uiso   1.00
N225   N     0.44176   0.33594   0.88294   0.00000  Uiso   1.00
N226   N     0.04585   0.74612   0.79675   0.00000  Uiso   1.00
N227   N     0.50727   0.84820   0.02022   0.00000  Uiso   1.00
N228   N     0.49823   0.36399   0.75256   0.00000  Uiso   1.00
N229   N     0.10233   0.77417   0.66637   0.00000  Uiso   1.00
N230   N     0.56375   0.87625   0.88984   0.00000  Uiso   1.00
C231   C     0.91551   0.32447   0.63684   0.00000  Uiso   1.00
C232   C     0.87759   0.36976   0.55749   0.00000  Uiso   1.00
C233   C     0.91600   0.37552   0.47458   0.00000  Uiso   1.00
C234   C     0.87089   0.41970   0.41080   0.00000  Uiso   1.00
C235   C     0.82424   0.48437   0.28476   0.00000  Uiso   1.00
C236   C     0.85551   0.26098   0.67228   0.00000  Uiso   1.00
C237   C     0.87538   0.17528   0.68590   0.00000  Uiso   1.00
C238   C     0.81168   0.12790   0.71877   0.00000  Uiso   1.00
C239   C     0.73079   0.02369   0.77100   0.00000  Uiso   1.00
C240   C     0.91172   0.38940   0.70418   0.00000  Uiso   1.00
C241   C     0.97883   0.41166   0.74463   0.00000  Uiso   1.00
C242   C     0.96245   0.47238   0.80438   0.00000  Uiso   1.00
C243   C     0.96882   0.56755   0.90613   0.00000  Uiso   1.00
C244   C     0.76708   0.39270   0.67103   0.00000  Uiso   1.00
C245   C     0.79696   0.40682   0.57606   0.00000  Uiso   1.00
C246   C     0.75178   0.45101   0.51240   0.00000  Uiso   1.00
C247   C     0.79012   0.45684   0.42941   0.00000  Uiso   1.00
C248   C     0.77490   0.29804   0.69085   0.00000  Uiso   1.00
C249   C     0.71116   0.25078   0.72372   0.00000  Uiso   1.00
C250   C     0.73091   0.16502   0.73737   0.00000  Uiso   1.00
C251   C     0.83110   0.42647   0.72275   0.00000  Uiso   1.00
C252   C     0.81461   0.48716   0.78245   0.00000  Uiso   1.00
C253   C     0.88168   0.50951   0.82298   0.00000  Uiso   1.00
H254   H     0.97828   0.29561   0.62239   0.00000  Uiso   1.00
H255   H     0.97839   0.34682   0.46023   0.00000  Uiso   1.00
H256   H     0.93777   0.14662   0.67153   0.00000  Uiso   1.00
H257   H     0.04121   0.38297   0.73025   0.00000  Uiso   1.00
H258   H     0.94295   0.41992   0.28863   0.00000  Uiso   1.00
H259   H     0.85732   0.99779   0.73419   0.00000  Uiso   1.00
H260   H     0.07543   0.49616   0.85802   0.00000  Uiso   1.00
H261   H     0.70431   0.42155   0.68549   0.00000  Uiso   1.00
H262   H     0.68939   0.47969   0.52679   0.00000  Uiso   1.00
H263   H     0.64878   0.27948   0.73808   0.00000  Uiso   1.00
H264   H     0.75221   0.51582   0.79680   0.00000  Uiso   1.00
H265   H     0.70838   0.52776   0.34265   0.00000  Uiso   1.00
H266   H     0.62275   0.10562   0.78821   0.00000  Uiso   1.00
H267   H     0.84086   0.60400   0.91203   0.00000  Uiso   1.00
O268   O     0.82078   0.50978   0.21010   0.00000  Uiso   1.00
O269   O     0.70844   0.95596   0.79467   0.00000  Uiso   1.00
O270   O     0.99460   0.60982   0.95712   0.00000  Uiso   1.00
N271   N     0.88980   0.43734   0.32313   0.00000  Uiso   1.00
N272   N     0.80973   0.04266   0.73968   0.00000  Uiso   1.00
N273   N     0.01365   0.50859   0.85547   0.00000  Uiso   1.00
N274   N     0.76358   0.49537   0.35219   0.00000  Uiso   1.00
N275   N     0.68352   0.10069   0.76875   0.00000  Uiso   1.00
N276   N     0.88743   0.56661   0.88453   0.00000  Uiso   1.00
