data_job_04043
_audit_creation_date              2018-12-19
_audit_creation_method            'Materials Studio'
_symmetry_space_group_name_H-M    'P1'
_symmetry_Int_Tables_number       1
_symmetry_cell_setting            triclinic
loop_
_symmetry_equiv_pos_as_xyz
  x,y,z
_cell_length_a                    45.3251
_cell_length_b                    7.5119
_cell_length_c                    22.7798
_cell_angle_alpha                 90.0000
_cell_angle_beta                  90.0000
_cell_angle_gamma                 90.0000
loop_
_atom_site_label
_atom_site_type_symbol
_atom_site_fract_x
_atom_site_fract_y
_atom_site_fract_z
_atom_site_U_iso_or_equiv
_atom_site_adp_type
_atom_site_occupancy
C1     C     0.58819   0.77272   0.24051   0.00000  Uiso   1.00
C2     C     0.58309   0.69104   0.30095   0.00000  Uiso   1.00
C3     C     0.56804   0.77070   0.34704   0.00000  Uiso   1.00
C4     C     0.56577   0.67414   0.39882   0.00000  Uiso   1.00
C5     C     0.55599   0.57323   0.49185   0.00000  Uiso   1.00
C6     C     0.62149   0.77207   0.23106   0.00000  Uiso   1.00
C7     C     0.63873   0.91986   0.21837   0.00000  Uiso   1.00
C8     C     0.66879   0.89149   0.21130   0.00000  Uiso   1.00
C9     C     0.71863   0.91636   0.19577   0.00000  Uiso   1.00
C10    C     0.57557   0.64046   0.19638   0.00000  Uiso   1.00
C11    C     0.55419   0.67760   0.15452   0.00000  Uiso   1.00
C12    C     0.54558   0.53845   0.11824   0.00000  Uiso   1.00
C13    C     0.52411   0.35898   0.04886   0.00000  Uiso   1.00
C14    C     0.61093   0.45958   0.25050   0.00000  Uiso   1.00
C15    C     0.59545   0.52095   0.30638   0.00000  Uiso   1.00
C16    C     0.59320   0.42424   0.35809   0.00000  Uiso   1.00
C17    C     0.57815   0.50375   0.40425   0.00000  Uiso   1.00
C18    C     0.63385   0.60199   0.23648   0.00000  Uiso   1.00
C19    C     0.66389   0.57340   0.22942   0.00000  Uiso   1.00
C20    C     0.68116   0.72110   0.21673   0.00000  Uiso   1.00
C21    C     0.58792   0.47037   0.20180   0.00000  Uiso   1.00
C22    C     0.57935   0.33114   0.16557   0.00000  Uiso   1.00
C23    C     0.55796   0.36806   0.12367   0.00000  Uiso   1.00
H24    H     0.57857   0.90514   0.23629   0.00000  Uiso   1.00
H25    H     0.55848   0.90234   0.34283   0.00000  Uiso   1.00
H26    H     0.62916   0.05146   0.21417   0.00000  Uiso   1.00
H27    H     0.54463   0.80924   0.15033   0.00000  Uiso   1.00
H28    H     0.54167   0.82425   0.46335   0.00000  Uiso   1.00
H29    H     0.69070   0.13867   0.19204   0.00000  Uiso   1.00
H30    H     0.51245   0.62791   0.05743   0.00000  Uiso   1.00
H31    H     0.62055   0.32715   0.25472   0.00000  Uiso   1.00
H32    H     0.60276   0.29263   0.36228   0.00000  Uiso   1.00
H33    H     0.67344   0.44176   0.23362   0.00000  Uiso   1.00
H34    H     0.58891   0.19954   0.16978   0.00000  Uiso   1.00
H35    H     0.57761   0.32939   0.47914   0.00000  Uiso   1.00
H36    H     0.72664   0.64381   0.20782   0.00000  Uiso   1.00
H37    H     0.54839   0.13305   0.07321   0.00000  Uiso   1.00
O38    O     0.54719   0.56456   0.54167   0.00000  Uiso   1.00
O39    O     0.74271   0.97707   0.18571   0.00000  Uiso   1.00
O40    O     0.50885   0.30696   0.00911   0.00000  Uiso   1.00
N41    N     0.55256   0.71251   0.45230   0.00000  Uiso   1.00
N42    N     0.69190   0.00648   0.19865   0.00000  Uiso   1.00
N43    N     0.52525   0.52897   0.07279   0.00000  Uiso   1.00
N44    N     0.57190   0.44623   0.46079   0.00000  Uiso   1.00
N45    N     0.71123   0.74020   0.20715   0.00000  Uiso   1.00
N46    N     0.54459   0.26269   0.08128   0.00000  Uiso   1.00
C47    C     0.91181   0.72728   0.24051   0.00000  Uiso   1.00
C48    C     0.91691   0.80896   0.30095   0.00000  Uiso   1.00
C49    C     0.93196   0.72930   0.34704   0.00000  Uiso   1.00
C50    C     0.93423   0.82586   0.39882   0.00000  Uiso   1.00
C51    C     0.94401   0.92677   0.49185   0.00000  Uiso   1.00
C52    C     0.87851   0.72793   0.23106   0.00000  Uiso   1.00
C53    C     0.86127   0.58014   0.21837   0.00000  Uiso   1.00
C54    C     0.83121   0.60851   0.21130   0.00000  Uiso   1.00
C55    C     0.78137   0.58364   0.19577   0.00000  Uiso   1.00
C56    C     0.92443   0.85954   0.19638   0.00000  Uiso   1.00
C57    C     0.94581   0.82240   0.15452   0.00000  Uiso   1.00
C58    C     0.95442   0.96155   0.11824   0.00000  Uiso   1.00
C59    C     0.97589   0.14102   0.04886   0.00000  Uiso   1.00
C60    C     0.88907   0.04042   0.25050   0.00000  Uiso   1.00
C61    C     0.90455   0.97905   0.30638   0.00000  Uiso   1.00
C62    C     0.90680   0.07576   0.35809   0.00000  Uiso   1.00
C63    C     0.92185   0.99625   0.40425   0.00000  Uiso   1.00
C64    C     0.86615   0.89801   0.23648   0.00000  Uiso   1.00
C65    C     0.83611   0.92660   0.22942   0.00000  Uiso   1.00
C66    C     0.81884   0.77890   0.21673   0.00000  Uiso   1.00
C67    C     0.91208   0.02963   0.20180   0.00000  Uiso   1.00
C68    C     0.92065   0.16886   0.16557   0.00000  Uiso   1.00
C69    C     0.94204   0.13194   0.12367   0.00000  Uiso   1.00
H70    H     0.92143   0.59486   0.23629   0.00000  Uiso   1.00
H71    H     0.94152   0.59766   0.34283   0.00000  Uiso   1.00
H72    H     0.87084   0.44854   0.21417   0.00000  Uiso   1.00
H73    H     0.95537   0.69076   0.15033   0.00000  Uiso   1.00
H74    H     0.95833   0.67575   0.46335   0.00000  Uiso   1.00
H75    H     0.80930   0.36133   0.19204   0.00000  Uiso   1.00
H76    H     0.98755   0.87209   0.05743   0.00000  Uiso   1.00
H77    H     0.87945   0.17285   0.25472   0.00000  Uiso   1.00
H78    H     0.89724   0.20737   0.36228   0.00000  Uiso   1.00
H79    H     0.82656   0.05824   0.23362   0.00000  Uiso   1.00
H80    H     0.91109   0.30046   0.16978   0.00000  Uiso   1.00
H81    H     0.92239   0.17061   0.47914   0.00000  Uiso   1.00
H82    H     0.77336   0.85619   0.20782   0.00000  Uiso   1.00
H83    H     0.95161   0.36695   0.07321   0.00000  Uiso   1.00
O84    O     0.95281   0.93544   0.54167   0.00000  Uiso   1.00
O85    O     0.75729   0.52293   0.18571   0.00000  Uiso   1.00
O86    O     0.99115   0.19304   0.00911   0.00000  Uiso   1.00
N87    N     0.94744   0.78749   0.45230   0.00000  Uiso   1.00
N88    N     0.80810   0.49352   0.19865   0.00000  Uiso   1.00
N89    N     0.97475   0.97103   0.07279   0.00000  Uiso   1.00
N90    N     0.92810   0.05377   0.46079   0.00000  Uiso   1.00
N91    N     0.78877   0.75980   0.20715   0.00000  Uiso   1.00
N92    N     0.95541   0.23731   0.08128   0.00000  Uiso   1.00
C93    C     0.41181   0.27272   0.25949   0.00000  Uiso   1.00
C94    C     0.41691   0.19104   0.19905   0.00000  Uiso   1.00
C95    C     0.43196   0.27070   0.15296   0.00000  Uiso   1.00
C96    C     0.43423   0.17414   0.10118   0.00000  Uiso   1.00
C97    C     0.44401   0.07323   0.00815   0.00000  Uiso   1.00
C98    C     0.37851   0.27207   0.26894   0.00000  Uiso   1.00
C99    C     0.36127   0.41986   0.28163   0.00000  Uiso   1.00
C100   C     0.33121   0.39149   0.28870   0.00000  Uiso   1.00
C101   C     0.28137   0.41636   0.30423   0.00000  Uiso   1.00
C102   C     0.42443   0.14046   0.30362   0.00000  Uiso   1.00
C103   C     0.44581   0.17760   0.34548   0.00000  Uiso   1.00
C104   C     0.45442   0.03845   0.38176   0.00000  Uiso   1.00
C105   C     0.47589   0.85898   0.45114   0.00000  Uiso   1.00
C106   C     0.38907   0.95958   0.24950   0.00000  Uiso   1.00
C107   C     0.40455   0.02095   0.19362   0.00000  Uiso   1.00
C108   C     0.40680   0.92424   0.14191   0.00000  Uiso   1.00
C109   C     0.42185   0.00375   0.09575   0.00000  Uiso   1.00
C110   C     0.36615   0.10199   0.26352   0.00000  Uiso   1.00
C111   C     0.33611   0.07340   0.27058   0.00000  Uiso   1.00
C112   C     0.31884   0.22110   0.28327   0.00000  Uiso   1.00
C113   C     0.41208   0.97037   0.29820   0.00000  Uiso   1.00
C114   C     0.42065   0.83114   0.33443   0.00000  Uiso   1.00
C115   C     0.44204   0.86806   0.37633   0.00000  Uiso   1.00
H116   H     0.42143   0.40514   0.26371   0.00000  Uiso   1.00
H117   H     0.44152   0.40234   0.15717   0.00000  Uiso   1.00
H118   H     0.37084   0.55146   0.28583   0.00000  Uiso   1.00
H119   H     0.45537   0.30924   0.34967   0.00000  Uiso   1.00
H120   H     0.45833   0.32425   0.03665   0.00000  Uiso   1.00
H121   H     0.30930   0.63867   0.30796   0.00000  Uiso   1.00
H122   H     0.48755   0.12791   0.44257   0.00000  Uiso   1.00
H123   H     0.37945   0.82715   0.24528   0.00000  Uiso   1.00
H124   H     0.39724   0.79263   0.13772   0.00000  Uiso   1.00
H125   H     0.32656   0.94176   0.26638   0.00000  Uiso   1.00
H126   H     0.41109   0.69954   0.33022   0.00000  Uiso   1.00
H127   H     0.42239   0.82939   0.02086   0.00000  Uiso   1.00
H128   H     0.27336   0.14381   0.29218   0.00000  Uiso   1.00
H129   H     0.45161   0.63305   0.42679   0.00000  Uiso   1.00
O130   O     0.45281   0.06456   0.95833   0.00000  Uiso   1.00
O131   O     0.25729   0.47707   0.31429   0.00000  Uiso   1.00
O132   O     0.49115   0.80696   0.49089   0.00000  Uiso   1.00
N133   N     0.44744   0.21251   0.04770   0.00000  Uiso   1.00
N134   N     0.30810   0.50648   0.30135   0.00000  Uiso   1.00
N135   N     0.47475   0.02897   0.42721   0.00000  Uiso   1.00
N136   N     0.42810   0.94623   0.03921   0.00000  Uiso   1.00
N137   N     0.28877   0.24020   0.29285   0.00000  Uiso   1.00
N138   N     0.45541   0.76269   0.41872   0.00000  Uiso   1.00
C139   C     0.08819   0.22728   0.25949   0.00000  Uiso   1.00
C140   C     0.08309   0.30896   0.19905   0.00000  Uiso   1.00
C141   C     0.06804   0.22930   0.15296   0.00000  Uiso   1.00
C142   C     0.06577   0.32586   0.10118   0.00000  Uiso   1.00
C143   C     0.05599   0.42677   0.00815   0.00000  Uiso   1.00
C144   C     0.12149   0.22793   0.26894   0.00000  Uiso   1.00
C145   C     0.13873   0.08014   0.28163   0.00000  Uiso   1.00
C146   C     0.16879   0.10851   0.28870   0.00000  Uiso   1.00
C147   C     0.21863   0.08364   0.30423   0.00000  Uiso   1.00
C148   C     0.07557   0.35954   0.30362   0.00000  Uiso   1.00
C149   C     0.05419   0.32240   0.34548   0.00000  Uiso   1.00
C150   C     0.04558   0.46155   0.38176   0.00000  Uiso   1.00
C151   C     0.02411   0.64102   0.45114   0.00000  Uiso   1.00
C152   C     0.11093   0.54042   0.24950   0.00000  Uiso   1.00
C153   C     0.09545   0.47905   0.19362   0.00000  Uiso   1.00
C154   C     0.09320   0.57576   0.14191   0.00000  Uiso   1.00
C155   C     0.07815   0.49625   0.09575   0.00000  Uiso   1.00
C156   C     0.13385   0.39801   0.26352   0.00000  Uiso   1.00
C157   C     0.16389   0.42660   0.27058   0.00000  Uiso   1.00
C158   C     0.18116   0.27890   0.28327   0.00000  Uiso   1.00
C159   C     0.08792   0.52963   0.29820   0.00000  Uiso   1.00
C160   C     0.07935   0.66886   0.33443   0.00000  Uiso   1.00
C161   C     0.05796   0.63194   0.37633   0.00000  Uiso   1.00
H162   H     0.07857   0.09486   0.26371   0.00000  Uiso   1.00
H163   H     0.05848   0.09766   0.15717   0.00000  Uiso   1.00
H164   H     0.12916   0.94854   0.28583   0.00000  Uiso   1.00
H165   H     0.04463   0.19076   0.34967   0.00000  Uiso   1.00
H166   H     0.04167   0.17575   0.03665   0.00000  Uiso   1.00
H167   H     0.19070   0.86133   0.30796   0.00000  Uiso   1.00
H168   H     0.01245   0.37209   0.44257   0.00000  Uiso   1.00
H169   H     0.12055   0.67285   0.24528   0.00000  Uiso   1.00
H170   H     0.10276   0.70737   0.13772   0.00000  Uiso   1.00
H171   H     0.17344   0.55824   0.26638   0.00000  Uiso   1.00
H172   H     0.08891   0.80046   0.33022   0.00000  Uiso   1.00
H173   H     0.07761   0.67061   0.02086   0.00000  Uiso   1.00
H174   H     0.22664   0.35619   0.29218   0.00000  Uiso   1.00
H175   H     0.04839   0.86695   0.42679   0.00000  Uiso   1.00
O176   O     0.04719   0.43544   0.95833   0.00000  Uiso   1.00
O177   O     0.24271   0.02293   0.31429   0.00000  Uiso   1.00
O178   O     0.00885   0.69304   0.49089   0.00000  Uiso   1.00
N179   N     0.05256   0.28749   0.04770   0.00000  Uiso   1.00
N180   N     0.19190   0.99352   0.30135   0.00000  Uiso   1.00
N181   N     0.02525   0.47103   0.42721   0.00000  Uiso   1.00
N182   N     0.07190   0.55377   0.03921   0.00000  Uiso   1.00
N183   N     0.21123   0.25980   0.29285   0.00000  Uiso   1.00
N184   N     0.04459   0.73731   0.41872   0.00000  Uiso   1.00
C185   C     0.41181   0.22728   0.75949   0.00000  Uiso   1.00
C186   C     0.41691   0.30896   0.69905   0.00000  Uiso   1.00
C187   C     0.43196   0.22930   0.65296   0.00000  Uiso   1.00
C188   C     0.43423   0.32586   0.60118   0.00000  Uiso   1.00
C189   C     0.44401   0.42677   0.50815   0.00000  Uiso   1.00
C190   C     0.37851   0.22793   0.76894   0.00000  Uiso   1.00
C191   C     0.36127   0.08014   0.78163   0.00000  Uiso   1.00
C192   C     0.33121   0.10851   0.78870   0.00000  Uiso   1.00
C193   C     0.28137   0.08364   0.80423   0.00000  Uiso   1.00
C194   C     0.42443   0.35954   0.80362   0.00000  Uiso   1.00
C195   C     0.44581   0.32240   0.84548   0.00000  Uiso   1.00
C196   C     0.45442   0.46155   0.88176   0.00000  Uiso   1.00
C197   C     0.47589   0.64102   0.95114   0.00000  Uiso   1.00
C198   C     0.38907   0.54042   0.74950   0.00000  Uiso   1.00
C199   C     0.40455   0.47905   0.69362   0.00000  Uiso   1.00
C200   C     0.40680   0.57576   0.64191   0.00000  Uiso   1.00
C201   C     0.42185   0.49625   0.59575   0.00000  Uiso   1.00
C202   C     0.36615   0.39801   0.76352   0.00000  Uiso   1.00
C203   C     0.33611   0.42660   0.77058   0.00000  Uiso   1.00
C204   C     0.31884   0.27890   0.78327   0.00000  Uiso   1.00
C205   C     0.41208   0.52963   0.79820   0.00000  Uiso   1.00
C206   C     0.42065   0.66886   0.83443   0.00000  Uiso   1.00
C207   C     0.44204   0.63194   0.87633   0.00000  Uiso   1.00
H208   H     0.42143   0.09486   0.76371   0.00000  Uiso   1.00
H209   H     0.44152   0.09766   0.65717   0.00000  Uiso   1.00
H210   H     0.37084   0.94854   0.78583   0.00000  Uiso   1.00
H211   H     0.45537   0.19076   0.84967   0.00000  Uiso   1.00
H212   H     0.45833   0.17575   0.53665   0.00000  Uiso   1.00
H213   H     0.30930   0.86133   0.80796   0.00000  Uiso   1.00
H214   H     0.48755   0.37209   0.94257   0.00000  Uiso   1.00
H215   H     0.37945   0.67285   0.74528   0.00000  Uiso   1.00
H216   H     0.39724   0.70737   0.63772   0.00000  Uiso   1.00
H217   H     0.32656   0.55824   0.76638   0.00000  Uiso   1.00
H218   H     0.41109   0.80046   0.83022   0.00000  Uiso   1.00
H219   H     0.42239   0.67061   0.52086   0.00000  Uiso   1.00
H220   H     0.27336   0.35619   0.79218   0.00000  Uiso   1.00
H221   H     0.45161   0.86695   0.92679   0.00000  Uiso   1.00
O222   O     0.45281   0.43544   0.45833   0.00000  Uiso   1.00
O223   O     0.25729   0.02293   0.81429   0.00000  Uiso   1.00
O224   O     0.49115   0.69304   0.99089   0.00000  Uiso   1.00
N225   N     0.44744   0.28749   0.54770   0.00000  Uiso   1.00
N226   N     0.30810   0.99352   0.80135   0.00000  Uiso   1.00
N227   N     0.47475   0.47103   0.92721   0.00000  Uiso   1.00
N228   N     0.42810   0.55377   0.53921   0.00000  Uiso   1.00
N229   N     0.28877   0.25980   0.79285   0.00000  Uiso   1.00
N230   N     0.45541   0.73731   0.91872   0.00000  Uiso   1.00
C231   C     0.08819   0.27272   0.75949   0.00000  Uiso   1.00
C232   C     0.08309   0.19104   0.69905   0.00000  Uiso   1.00
C233   C     0.06804   0.27070   0.65296   0.00000  Uiso   1.00
C234   C     0.06577   0.17414   0.60118   0.00000  Uiso   1.00
C235   C     0.05599   0.07323   0.50815   0.00000  Uiso   1.00
C236   C     0.12149   0.27207   0.76894   0.00000  Uiso   1.00
C237   C     0.13873   0.41986   0.78163   0.00000  Uiso   1.00
C238   C     0.16879   0.39149   0.78870   0.00000  Uiso   1.00
C239   C     0.21863   0.41636   0.80423   0.00000  Uiso   1.00
C240   C     0.07557   0.14046   0.80362   0.00000  Uiso   1.00
C241   C     0.05419   0.17760   0.84548   0.00000  Uiso   1.00
C242   C     0.04558   0.03845   0.88176   0.00000  Uiso   1.00
C243   C     0.02411   0.85898   0.95114   0.00000  Uiso   1.00
C244   C     0.11093   0.95958   0.74950   0.00000  Uiso   1.00
C245   C     0.09545   0.02095   0.69362   0.00000  Uiso   1.00
C246   C     0.09320   0.92424   0.64191   0.00000  Uiso   1.00
C247   C     0.07815   0.00375   0.59575   0.00000  Uiso   1.00
C248   C     0.13385   0.10199   0.76352   0.00000  Uiso   1.00
C249   C     0.16389   0.07340   0.77058   0.00000  Uiso   1.00
C250   C     0.18116   0.22110   0.78327   0.00000  Uiso   1.00
C251   C     0.08792   0.97037   0.79820   0.00000  Uiso   1.00
C252   C     0.07935   0.83114   0.83443   0.00000  Uiso   1.00
C253   C     0.05796   0.86806   0.87633   0.00000  Uiso   1.00
H254   H     0.07857   0.40514   0.76371   0.00000  Uiso   1.00
H255   H     0.05848   0.40234   0.65717   0.00000  Uiso   1.00
H256   H     0.12916   0.55146   0.78583   0.00000  Uiso   1.00
H257   H     0.04463   0.30924   0.84967   0.00000  Uiso   1.00
H258   H     0.04167   0.32425   0.53665   0.00000  Uiso   1.00
H259   H     0.19070   0.63867   0.80796   0.00000  Uiso   1.00
H260   H     0.01245   0.12791   0.94257   0.00000  Uiso   1.00
H261   H     0.12055   0.82715   0.74528   0.00000  Uiso   1.00
H262   H     0.10276   0.79263   0.63772   0.00000  Uiso   1.00
H263   H     0.17344   0.94176   0.76638   0.00000  Uiso   1.00
H264   H     0.08891   0.69954   0.83022   0.00000  Uiso   1.00
H265   H     0.07761   0.82939   0.52086   0.00000  Uiso   1.00
H266   H     0.22664   0.14381   0.79218   0.00000  Uiso   1.00
H267   H     0.04839   0.63305   0.92679   0.00000  Uiso   1.00
O268   O     0.04719   0.06456   0.45833   0.00000  Uiso   1.00
O269   O     0.24271   0.47707   0.81429   0.00000  Uiso   1.00
O270   O     0.00885   0.80696   0.99089   0.00000  Uiso   1.00
N271   N     0.05256   0.21251   0.54770   0.00000  Uiso   1.00
N272   N     0.19190   0.50648   0.80135   0.00000  Uiso   1.00
N273   N     0.02525   0.02897   0.92721   0.00000  Uiso   1.00
N274   N     0.07190   0.94623   0.53921   0.00000  Uiso   1.00
N275   N     0.21123   0.24020   0.79285   0.00000  Uiso   1.00
N276   N     0.04459   0.76269   0.91872   0.00000  Uiso   1.00
C277   C     0.58819   0.72728   0.74051   0.00000  Uiso   1.00
C278   C     0.58309   0.80896   0.80095   0.00000  Uiso   1.00
C279   C     0.56804   0.72930   0.84704   0.00000  Uiso   1.00
C280   C     0.56577   0.82586   0.89882   0.00000  Uiso   1.00
C281   C     0.55599   0.92677   0.99185   0.00000  Uiso   1.00
C282   C     0.62149   0.72793   0.73106   0.00000  Uiso   1.00
C283   C     0.63873   0.58014   0.71837   0.00000  Uiso   1.00
C284   C     0.66879   0.60851   0.71130   0.00000  Uiso   1.00
C285   C     0.71863   0.58364   0.69577   0.00000  Uiso   1.00
C286   C     0.57557   0.85954   0.69638   0.00000  Uiso   1.00
C287   C     0.55419   0.82240   0.65452   0.00000  Uiso   1.00
C288   C     0.54558   0.96155   0.61824   0.00000  Uiso   1.00
C289   C     0.52411   0.14102   0.54886   0.00000  Uiso   1.00
C290   C     0.61093   0.04042   0.75050   0.00000  Uiso   1.00
C291   C     0.59545   0.97905   0.80638   0.00000  Uiso   1.00
C292   C     0.59320   0.07576   0.85809   0.00000  Uiso   1.00
C293   C     0.57815   0.99625   0.90425   0.00000  Uiso   1.00
C294   C     0.63385   0.89801   0.73648   0.00000  Uiso   1.00
C295   C     0.66389   0.92660   0.72942   0.00000  Uiso   1.00
C296   C     0.68116   0.77890   0.71673   0.00000  Uiso   1.00
C297   C     0.58792   0.02963   0.70180   0.00000  Uiso   1.00
C298   C     0.57935   0.16886   0.66557   0.00000  Uiso   1.00
C299   C     0.55796   0.13194   0.62367   0.00000  Uiso   1.00
H300   H     0.57857   0.59486   0.73629   0.00000  Uiso   1.00
H301   H     0.55848   0.59766   0.84283   0.00000  Uiso   1.00
H302   H     0.62916   0.44854   0.71417   0.00000  Uiso   1.00
H303   H     0.54463   0.69076   0.65033   0.00000  Uiso   1.00
H304   H     0.54167   0.67575   0.96335   0.00000  Uiso   1.00
H305   H     0.69070   0.36133   0.69204   0.00000  Uiso   1.00
H306   H     0.51245   0.87209   0.55743   0.00000  Uiso   1.00
H307   H     0.62055   0.17285   0.75472   0.00000  Uiso   1.00
H308   H     0.60276   0.20737   0.86228   0.00000  Uiso   1.00
H309   H     0.67344   0.05824   0.73362   0.00000  Uiso   1.00
H310   H     0.58891   0.30046   0.66978   0.00000  Uiso   1.00
H311   H     0.57761   0.17061   0.97914   0.00000  Uiso   1.00
H312   H     0.72664   0.85619   0.70782   0.00000  Uiso   1.00
H313   H     0.54839   0.36695   0.57321   0.00000  Uiso   1.00
O314   O     0.54719   0.93544   0.04167   0.00000  Uiso   1.00
O315   O     0.74271   0.52293   0.68571   0.00000  Uiso   1.00
O316   O     0.50885   0.19304   0.50911   0.00000  Uiso   1.00
N317   N     0.55256   0.78749   0.95230   0.00000  Uiso   1.00
N318   N     0.69190   0.49352   0.69865   0.00000  Uiso   1.00
N319   N     0.52525   0.97103   0.57279   0.00000  Uiso   1.00
N320   N     0.57190   0.05377   0.96079   0.00000  Uiso   1.00
N321   N     0.71123   0.75980   0.70715   0.00000  Uiso   1.00
N322   N     0.54459   0.23731   0.58128   0.00000  Uiso   1.00
C323   C     0.91181   0.77272   0.74051   0.00000  Uiso   1.00
C324   C     0.91691   0.69104   0.80095   0.00000  Uiso   1.00
C325   C     0.93196   0.77070   0.84704   0.00000  Uiso   1.00
C326   C     0.93423   0.67414   0.89882   0.00000  Uiso   1.00
C327   C     0.94401   0.57323   0.99185   0.00000  Uiso   1.00
C328   C     0.87851   0.77207   0.73106   0.00000  Uiso   1.00
C329   C     0.86127   0.91986   0.71837   0.00000  Uiso   1.00
C330   C     0.83121   0.89149   0.71130   0.00000  Uiso   1.00
C331   C     0.78137   0.91636   0.69577   0.00000  Uiso   1.00
C332   C     0.92443   0.64046   0.69638   0.00000  Uiso   1.00
C333   C     0.94581   0.67760   0.65452   0.00000  Uiso   1.00
C334   C     0.95442   0.53845   0.61824   0.00000  Uiso   1.00
C335   C     0.97589   0.35898   0.54886   0.00000  Uiso   1.00
C336   C     0.88907   0.45958   0.75050   0.00000  Uiso   1.00
C337   C     0.90455   0.52095   0.80638   0.00000  Uiso   1.00
C338   C     0.90680   0.42424   0.85809   0.00000  Uiso   1.00
C339   C     0.92185   0.50375   0.90425   0.00000  Uiso   1.00
C340   C     0.86615   0.60199   0.73648   0.00000  Uiso   1.00
C341   C     0.83611   0.57340   0.72942   0.00000  Uiso   1.00
C342   C     0.81884   0.72110   0.71673   0.00000  Uiso   1.00
C343   C     0.91208   0.47037   0.70180   0.00000  Uiso   1.00
C344   C     0.92065   0.33114   0.66557   0.00000  Uiso   1.00
C345   C     0.94204   0.36806   0.62367   0.00000  Uiso   1.00
H346   H     0.92143   0.90514   0.73629   0.00000  Uiso   1.00
H347   H     0.94152   0.90234   0.84283   0.00000  Uiso   1.00
H348   H     0.87084   0.05146   0.71417   0.00000  Uiso   1.00
H349   H     0.95537   0.80924   0.65033   0.00000  Uiso   1.00
H350   H     0.95833   0.82425   0.96335   0.00000  Uiso   1.00
H351   H     0.80930   0.13867   0.69204   0.00000  Uiso   1.00
H352   H     0.98755   0.62791   0.55743   0.00000  Uiso   1.00
H353   H     0.87945   0.32715   0.75472   0.00000  Uiso   1.00
H354   H     0.89724   0.29263   0.86228   0.00000  Uiso   1.00
H355   H     0.82656   0.44176   0.73362   0.00000  Uiso   1.00
H356   H     0.91109   0.19954   0.66978   0.00000  Uiso   1.00
H357   H     0.92239   0.32939   0.97914   0.00000  Uiso   1.00
H358   H     0.77336   0.64381   0.70782   0.00000  Uiso   1.00
H359   H     0.95161   0.13305   0.57321   0.00000  Uiso   1.00
O360   O     0.95281   0.56456   0.04167   0.00000  Uiso   1.00
O361   O     0.75729   0.97707   0.68571   0.00000  Uiso   1.00
O362   O     0.99115   0.30696   0.50911   0.00000  Uiso   1.00
N363   N     0.94744   0.71251   0.95230   0.00000  Uiso   1.00
N364   N     0.80810   0.00648   0.69865   0.00000  Uiso   1.00
N365   N     0.97475   0.52897   0.57279   0.00000  Uiso   1.00
N366   N     0.92810   0.44623   0.96079   0.00000  Uiso   1.00
N367   N     0.78877   0.74020   0.70715   0.00000  Uiso   1.00
N368   N     0.95541   0.26269   0.58128   0.00000  Uiso   1.00
