data_job_04107
_audit_creation_date              2018-12-19
_audit_creation_method            'Materials Studio'
_symmetry_space_group_name_H-M    'P1'
_symmetry_Int_Tables_number       1
_symmetry_cell_setting            triclinic
loop_
_symmetry_equiv_pos_as_xyz
  x,y,z
_cell_length_a                    12.5373
_cell_length_b                    28.5951
_cell_length_c                    11.0877
_cell_angle_alpha                 90.0000
_cell_angle_beta                  64.1508
_cell_angle_gamma                 90.0000
loop_
_atom_site_label
_atom_site_type_symbol
_atom_site_fract_x
_atom_site_fract_y
_atom_site_fract_z
_atom_site_U_iso_or_equiv
_atom_site_adp_type
_atom_site_occupancy
C1     C     0.15672   0.34457   0.50019   0.00000  Uiso   1.00
C2     C     0.16643   0.29538   0.44321   0.00000  Uiso   1.00
C3     C     0.15447   0.25402   0.51346   0.00000  Uiso   1.00
C4     C     0.16640   0.21261   0.44335   0.00000  Uiso   1.00
C5     C     0.17792   0.13623   0.37551   0.00000  Uiso   1.00
C6     C     0.06033   0.36916   0.47509   0.00000  Uiso   1.00
C7     C     0.95916   0.38984   0.57214   0.00000  Uiso   1.00
C8     C     0.88178   0.41054   0.52886   0.00000  Uiso   1.00
C9     C     0.72860   0.44873   0.51051   0.00000  Uiso   1.00
C10    C     0.27248   0.36918   0.41133   0.00000  Uiso   1.00
C11    C     0.34969   0.38988   0.45477   0.00000  Uiso   1.00
C12    C     0.45092   0.41061   0.35781   0.00000  Uiso   1.00
C13    C     0.62715   0.44882   0.24046   0.00000  Uiso   1.00
C14    C     0.19919   0.34457   0.25076   0.00000  Uiso   1.00
C15    C     0.18950   0.29538   0.30774   0.00000  Uiso   1.00
C16    C     0.20146   0.25402   0.23750   0.00000  Uiso   1.00
C17    C     0.18952   0.21261   0.30763   0.00000  Uiso   1.00
C18    C     0.08339   0.36916   0.33962   0.00000  Uiso   1.00
C19    C     0.00614   0.38983   0.29619   0.00000  Uiso   1.00
C20    C     0.90488   0.41054   0.39314   0.00000  Uiso   1.00
C21    C     0.29555   0.36918   0.27585   0.00000  Uiso   1.00
C22    C     0.39668   0.38988   0.17881   0.00000  Uiso   1.00
C23    C     0.47403   0.41061   0.22209   0.00000  Uiso   1.00
H24    H     0.13875   0.34458   0.60566   0.00000  Uiso   1.00
H25    H     0.13661   0.25404   0.61831   0.00000  Uiso   1.00
H26    H     0.94134   0.38984   0.67697   0.00000  Uiso   1.00
H27    H     0.33181   0.38988   0.55962   0.00000  Uiso   1.00
H28    H     0.14436   0.15366   0.57259   0.00000  Uiso   1.00
H29    H     0.73264   0.44001   0.69629   0.00000  Uiso   1.00
H30    H     0.55603   0.44010   0.44883   0.00000  Uiso   1.00
H31    H     0.21714   0.34457   0.14529   0.00000  Uiso   1.00
H32    H     0.21931   0.25403   0.13266   0.00000  Uiso   1.00
H33    H     0.02403   0.38983   0.19134   0.00000  Uiso   1.00
H34    H     0.41450   0.38987   0.07398   0.00000  Uiso   1.00
H35    H     0.21147   0.15365   0.17843   0.00000  Uiso   1.00
H36    H     0.79975   0.44001   0.30213   0.00000  Uiso   1.00
H37    H     0.62314   0.44009   0.05467   0.00000  Uiso   1.00
O38    O     0.17788   0.09410   0.37553   0.00000  Uiso   1.00
O39    O     0.63774   0.46979   0.53782   0.00000  Uiso   1.00
O40    O     0.71800   0.46990   0.21315   0.00000  Uiso   1.00
N41    N     0.15988   0.16609   0.48155   0.00000  Uiso   1.00
N42    N     0.77494   0.43380   0.59721   0.00000  Uiso   1.00
N43    N     0.54472   0.43389   0.36585   0.00000  Uiso   1.00
N44    N     0.19600   0.16608   0.26945   0.00000  Uiso   1.00
N45    N     0.81105   0.43380   0.38511   0.00000  Uiso   1.00
N46    N     0.58083   0.43389   0.15376   0.00000  Uiso   1.00
C47    C     0.65672   0.84457   0.50019   0.00000  Uiso   1.00
C48    C     0.66643   0.79538   0.44321   0.00000  Uiso   1.00
C49    C     0.65447   0.75402   0.51346   0.00000  Uiso   1.00
C50    C     0.66640   0.71261   0.44335   0.00000  Uiso   1.00
C51    C     0.67792   0.63623   0.37551   0.00000  Uiso   1.00
C52    C     0.56033   0.86916   0.47509   0.00000  Uiso   1.00
C53    C     0.45916   0.88984   0.57214   0.00000  Uiso   1.00
C54    C     0.38178   0.91054   0.52886   0.00000  Uiso   1.00
C55    C     0.22860   0.94873   0.51051   0.00000  Uiso   1.00
C56    C     0.77248   0.86918   0.41133   0.00000  Uiso   1.00
C57    C     0.84969   0.88988   0.45477   0.00000  Uiso   1.00
C58    C     0.95092   0.91061   0.35781   0.00000  Uiso   1.00
C59    C     0.12715   0.94882   0.24046   0.00000  Uiso   1.00
C60    C     0.69919   0.84457   0.25076   0.00000  Uiso   1.00
C61    C     0.68950   0.79538   0.30774   0.00000  Uiso   1.00
C62    C     0.70146   0.75402   0.23750   0.00000  Uiso   1.00
C63    C     0.68952   0.71261   0.30763   0.00000  Uiso   1.00
C64    C     0.58339   0.86916   0.33962   0.00000  Uiso   1.00
C65    C     0.50614   0.88983   0.29619   0.00000  Uiso   1.00
C66    C     0.40488   0.91054   0.39314   0.00000  Uiso   1.00
C67    C     0.79555   0.86918   0.27585   0.00000  Uiso   1.00
C68    C     0.89668   0.88988   0.17881   0.00000  Uiso   1.00
C69    C     0.97403   0.91061   0.22209   0.00000  Uiso   1.00
H70    H     0.63875   0.84458   0.60566   0.00000  Uiso   1.00
H71    H     0.63661   0.75404   0.61831   0.00000  Uiso   1.00
H72    H     0.44134   0.88984   0.67697   0.00000  Uiso   1.00
H73    H     0.83181   0.88988   0.55962   0.00000  Uiso   1.00
H74    H     0.64436   0.65366   0.57259   0.00000  Uiso   1.00
H75    H     0.23264   0.94001   0.69629   0.00000  Uiso   1.00
H76    H     0.05603   0.94010   0.44883   0.00000  Uiso   1.00
H77    H     0.71714   0.84457   0.14529   0.00000  Uiso   1.00
H78    H     0.71931   0.75403   0.13266   0.00000  Uiso   1.00
H79    H     0.52403   0.88983   0.19134   0.00000  Uiso   1.00
H80    H     0.91450   0.88987   0.07398   0.00000  Uiso   1.00
H81    H     0.71147   0.65365   0.17843   0.00000  Uiso   1.00
H82    H     0.29975   0.94001   0.30213   0.00000  Uiso   1.00
H83    H     0.12314   0.94009   0.05467   0.00000  Uiso   1.00
O84    O     0.67788   0.59410   0.37553   0.00000  Uiso   1.00
O85    O     0.13774   0.96979   0.53782   0.00000  Uiso   1.00
O86    O     0.21800   0.96990   0.21315   0.00000  Uiso   1.00
N87    N     0.65988   0.66609   0.48155   0.00000  Uiso   1.00
N88    N     0.27494   0.93380   0.59721   0.00000  Uiso   1.00
N89    N     0.04472   0.93389   0.36585   0.00000  Uiso   1.00
N90    N     0.69600   0.66608   0.26945   0.00000  Uiso   1.00
N91    N     0.31105   0.93380   0.38511   0.00000  Uiso   1.00
N92    N     0.08083   0.93389   0.15376   0.00000  Uiso   1.00
C93    C     0.15672   0.65543   0.00019   0.00000  Uiso   1.00
C94    C     0.16643   0.70462   0.94321   0.00000  Uiso   1.00
C95    C     0.15447   0.74598   0.01346   0.00000  Uiso   1.00
C96    C     0.16640   0.78739   0.94335   0.00000  Uiso   1.00
C97    C     0.17792   0.86377   0.87551   0.00000  Uiso   1.00
C98    C     0.06033   0.63084   0.97509   0.00000  Uiso   1.00
C99    C     0.95916   0.61016   0.07214   0.00000  Uiso   1.00
C100   C     0.88178   0.58946   0.02886   0.00000  Uiso   1.00
C101   C     0.72860   0.55127   0.01051   0.00000  Uiso   1.00
C102   C     0.27248   0.63082   0.91133   0.00000  Uiso   1.00
C103   C     0.34969   0.61012   0.95477   0.00000  Uiso   1.00
C104   C     0.45092   0.58939   0.85781   0.00000  Uiso   1.00
C105   C     0.62715   0.55118   0.74046   0.00000  Uiso   1.00
C106   C     0.19919   0.65543   0.75076   0.00000  Uiso   1.00
C107   C     0.18950   0.70462   0.80774   0.00000  Uiso   1.00
C108   C     0.20146   0.74598   0.73750   0.00000  Uiso   1.00
C109   C     0.18952   0.78739   0.80763   0.00000  Uiso   1.00
C110   C     0.08339   0.63084   0.83962   0.00000  Uiso   1.00
C111   C     0.00614   0.61017   0.79619   0.00000  Uiso   1.00
C112   C     0.90488   0.58946   0.89314   0.00000  Uiso   1.00
C113   C     0.29555   0.63082   0.77585   0.00000  Uiso   1.00
C114   C     0.39668   0.61012   0.67881   0.00000  Uiso   1.00
C115   C     0.47403   0.58939   0.72209   0.00000  Uiso   1.00
H116   H     0.13875   0.65542   0.10566   0.00000  Uiso   1.00
H117   H     0.13661   0.74596   0.11831   0.00000  Uiso   1.00
H118   H     0.94134   0.61016   0.17697   0.00000  Uiso   1.00
H119   H     0.33181   0.61012   0.05962   0.00000  Uiso   1.00
H120   H     0.14436   0.84634   0.07259   0.00000  Uiso   1.00
H121   H     0.73264   0.55999   0.19629   0.00000  Uiso   1.00
H122   H     0.55603   0.55990   0.94883   0.00000  Uiso   1.00
H123   H     0.21714   0.65543   0.64529   0.00000  Uiso   1.00
H124   H     0.21931   0.74597   0.63266   0.00000  Uiso   1.00
H125   H     0.02403   0.61017   0.69134   0.00000  Uiso   1.00
H126   H     0.41450   0.61013   0.57398   0.00000  Uiso   1.00
H127   H     0.21147   0.84635   0.67843   0.00000  Uiso   1.00
H128   H     0.79975   0.55999   0.80213   0.00000  Uiso   1.00
H129   H     0.62314   0.55991   0.55467   0.00000  Uiso   1.00
O130   O     0.17788   0.90590   0.87553   0.00000  Uiso   1.00
O131   O     0.63774   0.53021   0.03782   0.00000  Uiso   1.00
O132   O     0.71800   0.53010   0.71315   0.00000  Uiso   1.00
N133   N     0.15988   0.83391   0.98155   0.00000  Uiso   1.00
N134   N     0.77494   0.56620   0.09721   0.00000  Uiso   1.00
N135   N     0.54472   0.56611   0.86585   0.00000  Uiso   1.00
N136   N     0.19600   0.83392   0.76945   0.00000  Uiso   1.00
N137   N     0.81105   0.56620   0.88511   0.00000  Uiso   1.00
N138   N     0.58083   0.56611   0.65376   0.00000  Uiso   1.00
C139   C     0.65672   0.15543   0.00019   0.00000  Uiso   1.00
C140   C     0.66643   0.20462   0.94321   0.00000  Uiso   1.00
C141   C     0.65447   0.24598   0.01346   0.00000  Uiso   1.00
C142   C     0.66640   0.28739   0.94335   0.00000  Uiso   1.00
C143   C     0.67792   0.36377   0.87551   0.00000  Uiso   1.00
C144   C     0.56033   0.13084   0.97509   0.00000  Uiso   1.00
C145   C     0.45916   0.11016   0.07214   0.00000  Uiso   1.00
C146   C     0.38178   0.08946   0.02886   0.00000  Uiso   1.00
C147   C     0.22860   0.05127   0.01051   0.00000  Uiso   1.00
C148   C     0.77248   0.13082   0.91133   0.00000  Uiso   1.00
C149   C     0.84969   0.11012   0.95477   0.00000  Uiso   1.00
C150   C     0.95092   0.08939   0.85781   0.00000  Uiso   1.00
C151   C     0.12715   0.05118   0.74046   0.00000  Uiso   1.00
C152   C     0.69919   0.15543   0.75076   0.00000  Uiso   1.00
C153   C     0.68950   0.20462   0.80774   0.00000  Uiso   1.00
C154   C     0.70146   0.24598   0.73750   0.00000  Uiso   1.00
C155   C     0.68952   0.28739   0.80763   0.00000  Uiso   1.00
C156   C     0.58339   0.13084   0.83962   0.00000  Uiso   1.00
C157   C     0.50614   0.11017   0.79619   0.00000  Uiso   1.00
C158   C     0.40488   0.08946   0.89314   0.00000  Uiso   1.00
C159   C     0.79555   0.13082   0.77585   0.00000  Uiso   1.00
C160   C     0.89668   0.11012   0.67881   0.00000  Uiso   1.00
C161   C     0.97403   0.08939   0.72209   0.00000  Uiso   1.00
H162   H     0.63875   0.15542   0.10566   0.00000  Uiso   1.00
H163   H     0.63661   0.24596   0.11831   0.00000  Uiso   1.00
H164   H     0.44134   0.11016   0.17697   0.00000  Uiso   1.00
H165   H     0.83181   0.11012   0.05962   0.00000  Uiso   1.00
H166   H     0.64436   0.34634   0.07259   0.00000  Uiso   1.00
H167   H     0.23264   0.05999   0.19629   0.00000  Uiso   1.00
H168   H     0.05603   0.05990   0.94883   0.00000  Uiso   1.00
H169   H     0.71714   0.15543   0.64529   0.00000  Uiso   1.00
H170   H     0.71931   0.24597   0.63266   0.00000  Uiso   1.00
H171   H     0.52403   0.11017   0.69134   0.00000  Uiso   1.00
H172   H     0.91450   0.11013   0.57398   0.00000  Uiso   1.00
H173   H     0.71147   0.34635   0.67843   0.00000  Uiso   1.00
H174   H     0.29975   0.05999   0.80213   0.00000  Uiso   1.00
H175   H     0.12314   0.05991   0.55467   0.00000  Uiso   1.00
O176   O     0.67788   0.40590   0.87553   0.00000  Uiso   1.00
O177   O     0.13774   0.03021   0.03782   0.00000  Uiso   1.00
O178   O     0.21800   0.03010   0.71315   0.00000  Uiso   1.00
N179   N     0.65988   0.33391   0.98155   0.00000  Uiso   1.00
N180   N     0.27494   0.06620   0.09721   0.00000  Uiso   1.00
N181   N     0.04472   0.06611   0.86585   0.00000  Uiso   1.00
N182   N     0.69600   0.33392   0.76945   0.00000  Uiso   1.00
N183   N     0.31105   0.06620   0.88511   0.00000  Uiso   1.00
N184   N     0.08083   0.06611   0.65376   0.00000  Uiso   1.00
