data_job_06994
_audit_creation_date              2018-12-19
_audit_creation_method            'Materials Studio'
_symmetry_space_group_name_H-M    'P1'
_symmetry_Int_Tables_number       1
_symmetry_cell_setting            triclinic
loop_
_symmetry_equiv_pos_as_xyz
  x,y,z
_cell_length_a                    17.9785
_cell_length_b                    22.8247
_cell_length_c                    23.9371
_cell_angle_alpha                 71.7757
_cell_angle_beta                  103.8400
_cell_angle_gamma                 69.5366
loop_
_atom_site_label
_atom_site_type_symbol
_atom_site_fract_x
_atom_site_fract_y
_atom_site_fract_z
_atom_site_U_iso_or_equiv
_atom_site_adp_type
_atom_site_occupancy
C1     C     0.63947   0.85874   0.56518   0.00000  Uiso   1.00
C2     C     0.59646   0.81273   0.58281   0.00000  Uiso   1.00
C3     C     0.57983   0.79436   0.63775   0.00000  Uiso   1.00
C4     C     0.53997   0.75181   0.64508   0.00000  Uiso   1.00
C5     C     0.47663   0.68389   0.67946   0.00000  Uiso   1.00
C6     C     0.71723   0.81593   0.55498   0.00000  Uiso   1.00
C7     C     0.80213   0.80027   0.58653   0.00000  Uiso   1.00
C8     C     0.86394   0.76042   0.57043   0.00000  Uiso   1.00
C9     C     0.98808   0.69752   0.56159   0.00000  Uiso   1.00
C10    C     0.57650   0.91814   0.49970   0.00000  Uiso   1.00
C11    C     0.54309   0.98841   0.48476   0.00000  Uiso   1.00
C12    C     0.48642   0.03462   0.42210   0.00000  Uiso   1.00
C13    C     0.39205   0.13041   0.32743   0.00000  Uiso   1.00
C14    C     0.59826   0.81584   0.48048   0.00000  Uiso   1.00
C15    C     0.57408   0.78943   0.53680   0.00000  Uiso   1.00
C16    C     0.53423   0.74690   0.54404   0.00000  Uiso   1.00
C17    C     0.51754   0.72847   0.59899   0.00000  Uiso   1.00
C18    C     0.69485   0.79264   0.50898   0.00000  Uiso   1.00
C19    C     0.75654   0.75281   0.49283   0.00000  Uiso   1.00
C20    C     0.84151   0.73708   0.52434   0.00000  Uiso   1.00
C21    C     0.55411   0.89484   0.45370   0.00000  Uiso   1.00
C22    C     0.49749   0.94095   0.39105   0.00000  Uiso   1.00
C23    C     0.46399   0.01128   0.37602   0.00000  Uiso   1.00
H24    H     0.65691   0.87687   0.60099   0.00000  Uiso   1.00
H25    H     0.59717   0.81239   0.67334   0.00000  Uiso   1.00
H26    H     0.81943   0.81831   0.62212   0.00000  Uiso   1.00
H27    H     0.56042   0.00642   0.52037   0.00000  Uiso   1.00
H28    H     0.52110   0.73061   0.73328   0.00000  Uiso   1.00
H29    H     0.98975   0.74311   0.62527   0.00000  Uiso   1.00
H30    H     0.44358   0.13978   0.41070   0.00000  Uiso   1.00
H31    H     0.58084   0.79770   0.44466   0.00000  Uiso   1.00
H32    H     0.51692   0.72888   0.50844   0.00000  Uiso   1.00
H33    H     0.73919   0.73479   0.45722   0.00000  Uiso   1.00
H34    H     0.48018   0.92291   0.35547   0.00000  Uiso   1.00
H35    H     0.45597   0.66283   0.59944   0.00000  Uiso   1.00
H36    H     0.92463   0.67532   0.49143   0.00000  Uiso   1.00
H37    H     0.37845   0.07200   0.27686   0.00000  Uiso   1.00
O38    O     0.44789   0.65285   0.71114   0.00000  Uiso   1.00
O39    O     0.06274   0.66926   0.56943   0.00000  Uiso   1.00
O40    O     0.34618   0.18968   0.28792   0.00000  Uiso   1.00
N41    N     0.51452   0.72411   0.69302   0.00000  Uiso   1.00
N42    N     0.95269   0.73579   0.59205   0.00000  Uiso   1.00
N43    N     0.44209   0.10664   0.39144   0.00000  Uiso   1.00
N44    N     0.47948   0.68764   0.62100   0.00000  Uiso   1.00
N45    N     0.91765   0.69931   0.52003   0.00000  Uiso   1.00
N46    N     0.40704   0.07017   0.31942   0.00000  Uiso   1.00
C47    C     0.49372   0.06237   0.98456   0.00000  Uiso   1.00
C48    C     0.51299   0.00018   0.96892   0.00000  Uiso   1.00
C49    C     0.45196   0.98551   0.93665   0.00000  Uiso   1.00
C50    C     0.48266   0.92610   0.92708   0.00000  Uiso   1.00
C51    C     0.49912   0.83609   0.89949   0.00000  Uiso   1.00
C52    C     0.53971   0.03244   0.05684   0.00000  Uiso   1.00
C53    C     0.50114   0.04491   0.09850   0.00000  Uiso   1.00
C54    C     0.55434   0.01266   0.16294   0.00000  Uiso   1.00
C55    C     0.61228   0.97278   0.27184   0.00000  Uiso   1.00
C56    C     0.54020   0.10004   0.95560   0.00000  Uiso   1.00
C57    C     0.50206   0.16935   0.91214   0.00000  Uiso   1.00
C58    C     0.55568   0.19402   0.89135   0.00000  Uiso   1.00
C59    C     0.61439   0.25909   0.84305   0.00000  Uiso   1.00
C60    C     0.65678   0.98294   0.02495   0.00000  Uiso   1.00
C61    C     0.60156   0.95704   0.99086   0.00000  Uiso   1.00
C62    C     0.63237   0.89763   0.98133   0.00000  Uiso   1.00
C63    C     0.57139   0.88288   0.94905   0.00000  Uiso   1.00
C64    C     0.62828   0.98930   0.07878   0.00000  Uiso   1.00
C65    C     0.68155   0.95703   0.14318   0.00000  Uiso   1.00
C66    C     0.64307   0.96944   0.18491   0.00000  Uiso   1.00
C67    C     0.62878   0.05690   0.97753   0.00000  Uiso   1.00
C68    C     0.68247   0.08147   0.95681   0.00000  Uiso   1.00
C69    C     0.64441   0.15080   0.91332   0.00000  Uiso   1.00
H70    H     0.42477   0.09596   0.96749   0.00000  Uiso   1.00
H71    H     0.38342   0.01891   0.91969   0.00000  Uiso   1.00
H72    H     0.43260   0.07831   0.08151   0.00000  Uiso   1.00
H73    H     0.43351   0.20272   0.89517   0.00000  Uiso   1.00
H74    H     0.37664   0.91445   0.87639   0.00000  Uiso   1.00
H75    H     0.48033   0.03971   0.21758   0.00000  Uiso   1.00
H76    H     0.48227   0.30207   0.82467   0.00000  Uiso   1.00
H77    H     0.72574   0.94935   0.04203   0.00000  Uiso   1.00
H78    H     0.70092   0.86425   0.99831   0.00000  Uiso   1.00
H79    H     0.75009   0.92365   0.16013   0.00000  Uiso   1.00
H80    H     0.75101   0.04807   0.97380   0.00000  Uiso   1.00
H81    H     0.63433   0.78893   0.94020   0.00000  Uiso   1.00
H82    H     0.73802   0.91418   0.28140   0.00000  Uiso   1.00
H83    H     0.73996   0.17654   0.88848   0.00000  Uiso   1.00
O84    O     0.48372   0.79835   0.87821   0.00000  Uiso   1.00
O85    O     0.61976   0.96269   0.32585   0.00000  Uiso   1.00
O86    O     0.62230   0.30690   0.81035   0.00000  Uiso   1.00
N87    N     0.44070   0.89660   0.89739   0.00000  Uiso   1.00
N88    N     0.53764   0.01369   0.21640   0.00000  Uiso   1.00
N89    N     0.53945   0.25898   0.84906   0.00000  Uiso   1.00
N90    N     0.57936   0.82905   0.93173   0.00000  Uiso   1.00
N91    N     0.67630   0.94615   0.25073   0.00000  Uiso   1.00
N92    N     0.67811   0.19144   0.88340   0.00000  Uiso   1.00
C93    C     0.97229   0.00282   0.40672   0.00000  Uiso   1.00
C94    C     0.03625   0.92653   0.43228   0.00000  Uiso   1.00
C95    C     0.12429   0.89655   0.46734   0.00000  Uiso   1.00
C96    C     0.17171   0.82593   0.48630   0.00000  Uiso   1.00
C97    C     0.27700   0.71344   0.52833   0.00000  Uiso   1.00
C98    C     0.92787   0.02896   0.33478   0.00000  Uiso   1.00
C99    C     0.92478   0.08510   0.28787   0.00000  Uiso   1.00
C100   C     0.88095   0.10070   0.22476   0.00000  Uiso   1.00
C101   C     0.81793   0.14726   0.11542   0.00000  Uiso   1.00
C102   C     0.90319   0.00355   0.43344   0.00000  Uiso   1.00
C103   C     0.87932   0.03835   0.46947   0.00000  Uiso   1.00
C104   C     0.81470   0.03257   0.48941   0.00000  Uiso   1.00
C105   C     0.71336   0.03969   0.53326   0.00000  Uiso   1.00
C106   C     0.89995   0.93071   0.37804   0.00000  Uiso   1.00
C107   C     0.99696   0.88737   0.41670   0.00000  Uiso   1.00
C108   C     0.04426   0.81677   0.43561   0.00000  Uiso   1.00
C109   C     0.13235   0.78669   0.47070   0.00000  Uiso   1.00
C110   C     0.88858   0.98979   0.31920   0.00000  Uiso   1.00
C111   C     0.84474   0.00532   0.25614   0.00000  Uiso   1.00
C112   C     0.84159   0.06147   0.20915   0.00000  Uiso   1.00
C113   C     0.86390   0.96439   0.41786   0.00000  Uiso   1.00
C114   C     0.79929   0.95856   0.43774   0.00000  Uiso   1.00
C115   C     0.77534   0.99334   0.47380   0.00000  Uiso   1.00
H116   H     0.00288   0.03331   0.41884   0.00000  Uiso   1.00
H117   H     0.15467   0.92688   0.47938   0.00000  Uiso   1.00
H118   H     0.95518   0.11540   0.29994   0.00000  Uiso   1.00
H119   H     0.90974   0.06865   0.48152   0.00000  Uiso   1.00
H120   H     0.30564   0.79161   0.53962   0.00000  Uiso   1.00
H121   H     0.88498   0.18913   0.16126   0.00000  Uiso   1.00
H122   H     0.78916   0.09056   0.54414   0.00000  Uiso   1.00
H123   H     0.86936   0.90022   0.36591   0.00000  Uiso   1.00
H124   H     0.01383   0.78648   0.42355   0.00000  Uiso   1.00
H125   H     0.81434   0.97500   0.24410   0.00000  Uiso   1.00
H126   H     0.76890   0.92825   0.42568   0.00000  Uiso   1.00
H127   H     0.19133   0.67766   0.49429   0.00000  Uiso   1.00
H128   H     0.77067   0.07518   0.11593   0.00000  Uiso   1.00
H129   H     0.67485   0.97660   0.49882   0.00000  Uiso   1.00
O130   O     0.34593   0.66222   0.55581   0.00000  Uiso   1.00
O131   O     0.79403   0.18376   0.05942   0.00000  Uiso   1.00
O132   O     0.66832   0.05442   0.56175   0.00000  Uiso   1.00
N133   N     0.25891   0.78040   0.52105   0.00000  Uiso   1.00
N134   N     0.86563   0.15205   0.16731   0.00000  Uiso   1.00
N135   N     0.77603   0.05990   0.52525   0.00000  Uiso   1.00
N136   N     0.19740   0.71908   0.49666   0.00000  Uiso   1.00
N137   N     0.80412   0.09073   0.14292   0.00000  Uiso   1.00
N138   N     0.71452   0.99859   0.50087   0.00000  Uiso   1.00
C139   C     0.97905   0.42855   0.03787   0.00000  Uiso   1.00
C140   C     0.04495   0.35334   0.06110   0.00000  Uiso   1.00
C141   C     0.12372   0.31748   0.11285   0.00000  Uiso   1.00
C142   C     0.17481   0.24902   0.12637   0.00000  Uiso   1.00
C143   C     0.28118   0.13701   0.16808   0.00000  Uiso   1.00
C144   C     0.89502   0.42696   0.03805   0.00000  Uiso   1.00
C145   C     0.84772   0.45300   0.07041   0.00000  Uiso   1.00
C146   C     0.77259   0.44653   0.06452   0.00000  Uiso   1.00
C147   C     0.64616   0.44885   0.07041   0.00000  Uiso   1.00
C148   C     0.96338   0.46574   0.96786   0.00000  Uiso   1.00
C149   C     0.97353   0.52441   0.94120   0.00000  Uiso   1.00
C150   C     0.95594   0.55060   0.87622   0.00000  Uiso   1.00
C151   C     0.93565   0.61314   0.77313   0.00000  Uiso   1.00
C152   C     0.92971   0.37075   0.96987   0.00000  Uiso   1.00
C153   C     0.01815   0.32195   0.02416   0.00000  Uiso   1.00
C154   C     0.06913   0.25353   0.03761   0.00000  Uiso   1.00
C155   C     0.14796   0.21757   0.08937   0.00000  Uiso   1.00
C156   C     0.86822   0.39556   0.00112   0.00000  Uiso   1.00
C157   C     0.79314   0.38905   0.99518   0.00000  Uiso   1.00
C158   C     0.74574   0.41508   0.02752   0.00000  Uiso   1.00
C159   C     0.93658   0.43435   0.93093   0.00000  Uiso   1.00
C160   C     0.91895   0.46046   0.86597   0.00000  Uiso   1.00
C161   C     0.92909   0.51915   0.83922   0.00000  Uiso   1.00
H162   H     0.99991   0.45299   0.06663   0.00000  Uiso   1.00
H163   H     0.14443   0.34179   0.14142   0.00000  Uiso   1.00
H164   H     0.86847   0.47730   0.09898   0.00000  Uiso   1.00
H165   H     0.99427   0.54869   0.96980   0.00000  Uiso   1.00
H166   H     0.29282   0.20465   0.20808   0.00000  Uiso   1.00
H167   H     0.71094   0.49040   0.11858   0.00000  Uiso   1.00
H168   H     0.97621   0.64095   0.84616   0.00000  Uiso   1.00
H169   H     0.90885   0.34631   0.94111   0.00000  Uiso   1.00
H170   H     0.04838   0.22925   0.00902   0.00000  Uiso   1.00
H171   H     0.77241   0.36476   0.96659   0.00000  Uiso   1.00
H172   H     0.89822   0.43615   0.83740   0.00000  Uiso   1.00
H173   H     0.21486   0.11330   0.10062   0.00000  Uiso   1.00
H174   H     0.63297   0.39906   0.01111   0.00000  Uiso   1.00
H175   H     0.89824   0.54960   0.73870   0.00000  Uiso   1.00
O176   O     0.34726   0.08389   0.20130   0.00000  Uiso   1.00
O177   O     0.58384   0.45879   0.08387   0.00000  Uiso   1.00
O178   O     0.93187   0.65630   0.72647   0.00000  Uiso   1.00
N179   N     0.25534   0.19922   0.17346   0.00000  Uiso   1.00
N180   N     0.71131   0.46637   0.08979   0.00000  Uiso   1.00
N181   N     0.95930   0.60713   0.83510   0.00000  Uiso   1.00
N182   N     0.21338   0.15007   0.11563   0.00000  Uiso   1.00
N183   N     0.66936   0.41722   0.03197   0.00000  Uiso   1.00
N184   N     0.91735   0.55798   0.77728   0.00000  Uiso   1.00
C185   C     0.41149   0.53834   0.34970   0.00000  Uiso   1.00
C186   C     0.44224   0.46030   0.37415   0.00000  Uiso   1.00
C187   C     0.45704   0.42277   0.33873   0.00000  Uiso   1.00
C188   C     0.48503   0.35180   0.36981   0.00000  Uiso   1.00
C189   C     0.53090   0.23552   0.39801   0.00000  Uiso   1.00
C190   C     0.47876   0.54698   0.39437   0.00000  Uiso   1.00
C191   C     0.52425   0.58235   0.37596   0.00000  Uiso   1.00
C192   C     0.58297   0.58436   0.42407   0.00000  Uiso   1.00
C193   C     0.68549   0.60270   0.48366   0.00000  Uiso   1.00
C194   C     0.32948   0.56710   0.36156   0.00000  Uiso   1.00
C195   C     0.24946   0.61938   0.31557   0.00000  Uiso   1.00
C196   C     0.18249   0.63834   0.33605   0.00000  Uiso   1.00
C197   C     0.05323   0.68791   0.34470   0.00000  Uiso   1.00
C198   C     0.43486   0.47905   0.46786   0.00000  Uiso   1.00
C199   C     0.45494   0.42810   0.43833   0.00000  Uiso   1.00
C200   C     0.48291   0.35717   0.46947   0.00000  Uiso   1.00
C201   C     0.49774   0.31954   0.43410   0.00000  Uiso   1.00
C202   C     0.49146   0.51478   0.45855   0.00000  Uiso   1.00
C203   C     0.55012   0.51675   0.50669   0.00000  Uiso   1.00
C204   C     0.59569   0.55210   0.48836   0.00000  Uiso   1.00
C205   C     0.34218   0.53489   0.42574   0.00000  Uiso   1.00
C206   C     0.27532   0.55378   0.44630   0.00000  Uiso   1.00
C207   C     0.19522   0.60608   0.40035   0.00000  Uiso   1.00
H208   H     0.40160   0.56341   0.29974   0.00000  Uiso   1.00
H209   H     0.44722   0.44771   0.28907   0.00000  Uiso   1.00
H210   H     0.51441   0.60727   0.32629   0.00000  Uiso   1.00
H211   H     0.23966   0.64429   0.26591   0.00000  Uiso   1.00
H212   H     0.50342   0.30523   0.30555   0.00000  Uiso   1.00
H213   H     0.64507   0.64168   0.38403   0.00000  Uiso   1.00
H214   H     0.06571   0.71976   0.25670   0.00000  Uiso   1.00
H215   H     0.44475   0.45397   0.51783   0.00000  Uiso   1.00
H216   H     0.49273   0.33226   0.51913   0.00000  Uiso   1.00
H217   H     0.55992   0.49182   0.55636   0.00000  Uiso   1.00
H218   H     0.28517   0.52885   0.49597   0.00000  Uiso   1.00
H219   H     0.54036   0.21152   0.49228   0.00000  Uiso   1.00
H220   H     0.68202   0.54798   0.57076   0.00000  Uiso   1.00
H221   H     0.10265   0.62606   0.44343   0.00000  Uiso   1.00
O222   O     0.55270   0.18028   0.39584   0.00000  Uiso   1.00
O223   O     0.73853   0.62171   0.49881   0.00000  Uiso   1.00
O224   O     0.97842   0.72414   0.33175   0.00000  Uiso   1.00
N225   N     0.50551   0.29988   0.34932   0.00000  Uiso   1.00
N226   N     0.63796   0.61444   0.42269   0.00000  Uiso   1.00
N227   N     0.09631   0.68745   0.30365   0.00000  Uiso   1.00
N228   N     0.52539   0.24946   0.44979   0.00000  Uiso   1.00
N229   N     0.65784   0.56402   0.52317   0.00000  Uiso   1.00
N230   N     0.11619   0.63703   0.40413   0.00000  Uiso   1.00
C231   C     0.43435   0.52659   0.86602   0.00000  Uiso   1.00
C232   C     0.47981   0.45010   0.91354   0.00000  Uiso   1.00
C233   C     0.45828   0.42084   0.96345   0.00000  Uiso   1.00
C234   C     0.50774   0.34987   0.00158   0.00000  Uiso   1.00
C235   C     0.56788   0.23720   0.07709   0.00000  Uiso   1.00
C236   C     0.40566   0.52852   0.79986   0.00000  Uiso   1.00
C237   C     0.32179   0.56521   0.75418   0.00000  Uiso   1.00
C238   C     0.30884   0.56026   0.69662   0.00000  Uiso   1.00
C239   C     0.25388   0.56939   0.59562   0.00000  Uiso   1.00
C240   C     0.50401   0.55043   0.87025   0.00000  Uiso   1.00
C241   C     0.50282   0.60555   0.88374   0.00000  Uiso   1.00
C242   C     0.57266   0.61906   0.88542   0.00000  Uiso   1.00
C243   C     0.67039   0.66222   0.89371   0.00000  Uiso   1.00
C244   C     0.56049   0.45258   0.84501   0.00000  Uiso   1.00
C245   C     0.54832   0.40990   0.90213   0.00000  Uiso   1.00
C246   C     0.59784   0.33896   0.94020   0.00000  Uiso   1.00
C247   C     0.57638   0.30960   0.99015   0.00000  Uiso   1.00
C248   C     0.47417   0.48833   0.78845   0.00000  Uiso   1.00
C249   C     0.46135   0.48333   0.73094   0.00000  Uiso   1.00
C250   C     0.37748   0.51999   0.68519   0.00000  Uiso   1.00
C251   C     0.57253   0.51024   0.85884   0.00000  Uiso   1.00
C252   C     0.64238   0.52367   0.86049   0.00000  Uiso   1.00
C253   C     0.64130   0.57880   0.87399   0.00000  Uiso   1.00
H254   H     0.38101   0.55788   0.87490   0.00000  Uiso   1.00
H255   H     0.40525   0.45196   0.97226   0.00000  Uiso   1.00
H256   H     0.26879   0.59631   0.76303   0.00000  Uiso   1.00
H257   H     0.44979   0.63665   0.89257   0.00000  Uiso   1.00
H258   H     0.46232   0.31679   0.07515   0.00000  Uiso   1.00
H259   H     0.17459   0.62119   0.63397   0.00000  Uiso   1.00
H260   H     0.55626   0.70624   0.90712   0.00000  Uiso   1.00
H261   H     0.61383   0.42129   0.83612   0.00000  Uiso   1.00
H262   H     0.65085   0.30786   0.93136   0.00000  Uiso   1.00
H263   H     0.51439   0.45222   0.72212   0.00000  Uiso   1.00
H264   H     0.69539   0.49255   0.85166   0.00000  Uiso   1.00
H265   H     0.66165   0.19984   0.04195   0.00000  Uiso   1.00
H266   H     0.37392   0.50424   0.60076   0.00000  Uiso   1.00
H267   H     0.75560   0.58929   0.87392   0.00000  Uiso   1.00
O268   O     0.58212   0.18616   0.12189   0.00000  Uiso   1.00
O269   O     0.20463   0.58553   0.54307   0.00000  Uiso   1.00
O270   O     0.70538   0.69712   0.90144   0.00000  Uiso   1.00
N271   N     0.50416   0.30483   0.05428   0.00000  Uiso   1.00
N272   N     0.23515   0.58942   0.64180   0.00000  Uiso   1.00
N273   N     0.59197   0.66895   0.89716   0.00000  Uiso   1.00
N274   N     0.61142   0.24190   0.03641   0.00000  Uiso   1.00
N275   N     0.34241   0.52649   0.62393   0.00000  Uiso   1.00
N276   N     0.69924   0.60602   0.87929   0.00000  Uiso   1.00
C277   C     0.20232   0.35092   0.30035   0.00000  Uiso   1.00
C278   C     0.23230   0.39642   0.25971   0.00000  Uiso   1.00
C279   C     0.27272   0.38079   0.21990   0.00000  Uiso   1.00
C280   C     0.29509   0.42920   0.18674   0.00000  Uiso   1.00
C281   C     0.34426   0.49046   0.12263   0.00000  Uiso   1.00
C282   C     0.10629   0.39599   0.28058   0.00000  Uiso   1.00
C283   C     0.04078   0.38001   0.25834   0.00000  Uiso   1.00
C284   C     0.95708   0.42805   0.24276   0.00000  Uiso   1.00
C285   C     0.81064   0.48863   0.21110   0.00000  Uiso   1.00
C286   C     0.24632   0.33831   0.36889   0.00000  Uiso   1.00
C287   C     0.29852   0.27383   0.42090   0.00000  Uiso   1.00
C288   C     0.33270   0.27331   0.47967   0.00000  Uiso   1.00
C289   C     0.40367   0.24433   0.58513   0.00000  Uiso   1.00
C290   C     0.17017   0.46467   0.31224   0.00000  Uiso   1.00
C291   C     0.21484   0.45820   0.26617   0.00000  Uiso   1.00
C292   C     0.23716   0.50664   0.23306   0.00000  Uiso   1.00
C293   C     0.27761   0.49109   0.19321   0.00000  Uiso   1.00
C294   C     0.08883   0.45778   0.28704   0.00000  Uiso   1.00
C295   C     0.00522   0.50586   0.27150   0.00000  Uiso   1.00
C296   C     0.93959   0.48995   0.24923   0.00000  Uiso   1.00
C297   C     0.22887   0.40010   0.37535   0.00000  Uiso   1.00
C298   C     0.26297   0.39968   0.43406   0.00000  Uiso   1.00
C299   C     0.31521   0.33521   0.48614   0.00000  Uiso   1.00
H300   H     0.21590   0.30282   0.29532   0.00000  Uiso   1.00
H301   H     0.28621   0.33298   0.21491   0.00000  Uiso   1.00
H302   H     0.05431   0.33219   0.25335   0.00000  Uiso   1.00
H303   H     0.31202   0.22603   0.41588   0.00000  Uiso   1.00
H304   H     0.35643   0.39366   0.12860   0.00000  Uiso   1.00
H305   H     0.86746   0.39199   0.20967   0.00000  Uiso   1.00
H306   H     0.41089   0.16813   0.55240   0.00000  Uiso   1.00
H307   H     0.15658   0.51277   0.31727   0.00000  Uiso   1.00
H308   H     0.22364   0.55445   0.23807   0.00000  Uiso   1.00
H309   H     0.99173   0.55366   0.27651   0.00000  Uiso   1.00
H310   H     0.24944   0.44750   0.43904   0.00000  Uiso   1.00
H311   H     0.30564   0.57342   0.14739   0.00000  Uiso   1.00
H312   H     0.81667   0.57175   0.22846   0.00000  Uiso   1.00
H313   H     0.36010   0.34789   0.57119   0.00000  Uiso   1.00
O314   O     0.37619   0.50718   0.08548   0.00000  Uiso   1.00
O315   O     0.73468   0.50498   0.19185   0.00000  Uiso   1.00
O316   O     0.44765   0.21128   0.64151   0.00000  Uiso   1.00
N317   N     0.33529   0.43025   0.14390   0.00000  Uiso   1.00
N318   N     0.87813   0.42869   0.21968   0.00000  Uiso   1.00
N319   N     0.38617   0.21939   0.54011   0.00000  Uiso   1.00
N320   N     0.30796   0.52697   0.15401   0.00000  Uiso   1.00
N321   N     0.85080   0.52541   0.22980   0.00000  Uiso   1.00
N322   N     0.35884   0.31612   0.55023   0.00000  Uiso   1.00
C323   C     0.23577   0.23857   0.85373   0.00000  Uiso   1.00
C324   C     0.23795   0.26958   0.90167   0.00000  Uiso   1.00
C325   C     0.29768   0.23651   0.96430   0.00000  Uiso   1.00
C326   C     0.28868   0.27371   0.00048   0.00000  Uiso   1.00
C327   C     0.30219   0.31155   0.07881   0.00000  Uiso   1.00
C328   C     0.23931   0.28867   0.79601   0.00000  Uiso   1.00
C329   C     0.30019   0.27165   0.76980   0.00000  Uiso   1.00
C330   C     0.29232   0.32492   0.71702   0.00000  Uiso   1.00
C331   C     0.30791   0.39239   0.63128   0.00000  Uiso   1.00
C332   C     0.14628   0.24304   0.83120   0.00000  Uiso   1.00
C333   C     0.12894   0.18765   0.83456   0.00000  Uiso   1.00
C334   C     0.04274   0.20250   0.81140   0.00000  Uiso   1.00
C335   C     0.91390   0.19911   0.78030   0.00000  Uiso   1.00
C336   C     0.11354   0.36344   0.80660   0.00000  Uiso   1.00
C337   C     0.17156   0.33740   0.87607   0.00000  Uiso   1.00
C338   C     0.16246   0.37466   0.91216   0.00000  Uiso   1.00
C339   C     0.22217   0.34165   0.97484   0.00000  Uiso   1.00
C340   C     0.17293   0.35649   0.77041   0.00000  Uiso   1.00
C341   C     0.16496   0.40979   0.71766   0.00000  Uiso   1.00
C342   C     0.22581   0.39286   0.69137   0.00000  Uiso   1.00
C343   C     0.07989   0.31086   0.80560   0.00000  Uiso   1.00
C344   C     0.99371   0.32579   0.78243   0.00000  Uiso   1.00
C345   C     0.97624   0.27044   0.78576   0.00000  Uiso   1.00
H346   H     0.28745   0.18577   0.87366   0.00000  Uiso   1.00
H347   H     0.34906   0.18403   0.98410   0.00000  Uiso   1.00
H348   H     0.35155   0.21916   0.78962   0.00000  Uiso   1.00
H349   H     0.18033   0.13517   0.85438   0.00000  Uiso   1.00
H350   H     0.38810   0.21201   0.09524   0.00000  Uiso   1.00
H351   H     0.39334   0.28608   0.68516   0.00000  Uiso   1.00
H352   H     0.03228   0.10898   0.82172   0.00000  Uiso   1.00
H353   H     0.06185   0.41624   0.78667   0.00000  Uiso   1.00
H354   H     0.11108   0.42714   0.89234   0.00000  Uiso   1.00
H355   H     0.11357   0.46227   0.69786   0.00000  Uiso   1.00
H356   H     0.94235   0.37828   0.76262   0.00000  Uiso   1.00
H357   H     0.19495   0.40933   0.02077   0.00000  Uiso   1.00
H358   H     0.20019   0.48340   0.61068   0.00000  Uiso   1.00
H359   H     0.83913   0.30630   0.74724   0.00000  Uiso   1.00
O360   O     0.32799   0.31369   0.12908   0.00000  Uiso   1.00
O361   O     0.33486   0.41087   0.59106   0.00000  Uiso   1.00
O362   O     0.86117   0.17851   0.77023   0.00000  Uiso   1.00
N363   N     0.33588   0.25695   0.06322   0.00000  Uiso   1.00
N364   N     0.34078   0.32620   0.67982   0.00000  Uiso   1.00
N365   N     0.00323   0.16063   0.80748   0.00000  Uiso   1.00
N366   N     0.23194   0.36313   0.02314   0.00000  Uiso   1.00
N367   N     0.23685   0.43238   0.63974   0.00000  Uiso   1.00
N368   N     0.89929   0.26680   0.76740   0.00000  Uiso   1.00
C369   C     0.84527   0.21970   0.44834   0.00000  Uiso   1.00
C370   C     0.77303   0.25736   0.38202   0.00000  Uiso   1.00
C371   C     0.72088   0.23146   0.35705   0.00000  Uiso   1.00
C372   C     0.65845   0.27396   0.29545   0.00000  Uiso   1.00
C373   C     0.54775   0.32242   0.19785   0.00000  Uiso   1.00
C374   C     0.82391   0.26771   0.48067   0.00000  Uiso   1.00
C375   C     0.81455   0.25050   0.53866   0.00000  Uiso   1.00
C376   C     0.79495   0.30171   0.56010   0.00000  Uiso   1.00
C377   C     0.76331   0.36621   0.61568   0.00000  Uiso   1.00
C378   C     0.92642   0.21732   0.43778   0.00000  Uiso   1.00
C379   C     0.00327   0.15775   0.45973   0.00000  Uiso   1.00
C380   C     0.07000   0.16654   0.44507   0.00000  Uiso   1.00
C381   C     0.19752   0.15280   0.43407   0.00000  Uiso   1.00
C382   C     0.82712   0.34123   0.38333   0.00000  Uiso   1.00
C383   C     0.76318   0.32337   0.34671   0.00000  Uiso   1.00
C384   C     0.70081   0.36592   0.28512   0.00000  Uiso   1.00
C385   C     0.64858   0.34009   0.26007   0.00000  Uiso   1.00
C386   C     0.81405   0.33372   0.44536   0.00000  Uiso   1.00
C387   C     0.79447   0.38496   0.46672   0.00000  Uiso   1.00
C388   C     0.78508   0.36785   0.52472   0.00000  Uiso   1.00
C389   C     0.91657   0.28333   0.40247   0.00000  Uiso   1.00
C390   C     0.98319   0.29221   0.38779   0.00000  Uiso   1.00
C391   C     0.06012   0.23267   0.40970   0.00000  Uiso   1.00
H392   H     0.85294   0.16830   0.47584   0.00000  Uiso   1.00
H393   H     0.72852   0.18037   0.38440   0.00000  Uiso   1.00
H394   H     0.82218   0.19941   0.56598   0.00000  Uiso   1.00
H395   H     0.01087   0.10667   0.48705   0.00000  Uiso   1.00
H396   H     0.58622   0.22288   0.26746   0.00000  Uiso   1.00
H397   H     0.78374   0.26301   0.65033   0.00000  Uiso   1.00
H398   H     0.18163   0.06745   0.48391   0.00000  Uiso   1.00
H399   H     0.81945   0.39263   0.35583   0.00000  Uiso   1.00
H400   H     0.69319   0.41701   0.25780   0.00000  Uiso   1.00
H401   H     0.78685   0.43604   0.43938   0.00000  Uiso   1.00
H402   H     0.97554   0.34330   0.36046   0.00000  Uiso   1.00
H403   H     0.55754   0.41494   0.16471   0.00000  Uiso   1.00
H404   H     0.75506   0.45507   0.54759   0.00000  Uiso   1.00
H405   H     0.15295   0.25951   0.38116   0.00000  Uiso   1.00
O406   O     0.48941   0.33091   0.15377   0.00000  Uiso   1.00
O407   O     0.74856   0.38355   0.65610   0.00000  Uiso   1.00
O408   O     0.27058   0.12698   0.43775   0.00000  Uiso   1.00
N409   N     0.59681   0.26473   0.25672   0.00000  Uiso   1.00
N410   N     0.78146   0.30225   0.61469   0.00000  Uiso   1.00
N411   N     0.15346   0.11942   0.45911   0.00000  Uiso   1.00
N412   N     0.58138   0.36807   0.20143   0.00000  Uiso   1.00
N413   N     0.76603   0.40560   0.55940   0.00000  Uiso   1.00
N414   N     0.13803   0.22277   0.40382   0.00000  Uiso   1.00
C415   C     0.76922   0.82985   0.85132   0.00000  Uiso   1.00
C416   C     0.68410   0.89662   0.81444   0.00000  Uiso   1.00
C417   C     0.60263   0.90063   0.79452   0.00000  Uiso   1.00
C418   C     0.53283   0.96662   0.76138   0.00000  Uiso   1.00
C419   C     0.39893   0.06121   0.70602   0.00000  Uiso   1.00
C420   C     0.82339   0.83509   0.81151   0.00000  Uiso   1.00
C421   C     0.85905   0.78736   0.78913   0.00000  Uiso   1.00
C422   C     0.90652   0.80155   0.75353   0.00000  Uiso   1.00
C423   C     0.98894   0.80059   0.69366   0.00000  Uiso   1.00
C424   C     0.81448   0.83326   0.91196   0.00000  Uiso   1.00
C425   C     0.84268   0.78397   0.97404   0.00000  Uiso   1.00
C426   C     0.88266   0.79661   0.02302   0.00000  Uiso   1.00
C427   C     0.95124   0.79281   0.11912   0.00000  Uiso   1.00
C428   C     0.79012   0.93992   0.82791   0.00000  Uiso   1.00
C429   C     0.69545   0.95641   0.80172   0.00000  Uiso   1.00
C430   C     0.62575   0.02241   0.76861   0.00000  Uiso   1.00
C431   C     0.54420   0.02651   0.74864   0.00000  Uiso   1.00
C432   C     0.83474   0.89488   0.79879   0.00000  Uiso   1.00
C433   C     0.88217   0.90914   0.76323   0.00000  Uiso   1.00
C434   C     0.91789   0.86145   0.74079   0.00000  Uiso   1.00
C435   C     0.82583   0.89305   0.89925   0.00000  Uiso   1.00
C436   C     0.86579   0.90576   0.94814   0.00000  Uiso   1.00
C437   C     0.89403   0.85651   0.01028   0.00000  Uiso   1.00
H438   H     0.76038   0.78330   0.86122   0.00000  Uiso   1.00
H439   H     0.59387   0.85434   0.80436   0.00000  Uiso   1.00
H440   H     0.85026   0.74109   0.79898   0.00000  Uiso   1.00
H441   H     0.83388   0.73771   0.98387   0.00000  Uiso   1.00
H442   H     0.41427   0.95948   0.73569   0.00000  Uiso   1.00
H443   H     0.95491   0.72067   0.72437   0.00000  Uiso   1.00
H444   H     0.92037   0.71354   0.11423   0.00000  Uiso   1.00
H445   H     0.79895   0.98647   0.81801   0.00000  Uiso   1.00
H446   H     0.63456   0.06867   0.75878   0.00000  Uiso   1.00
H447   H     0.89095   0.95541   0.75340   0.00000  Uiso   1.00
H448   H     0.87456   0.95203   0.93828   0.00000  Uiso   1.00
H449   H     0.44729   0.13344   0.69869   0.00000  Uiso   1.00
H450   H     0.98794   0.89462   0.68737   0.00000  Uiso   1.00
H451   H     0.95339   0.88749   0.07723   0.00000  Uiso   1.00
O452   O     0.32194   0.09687   0.67899   0.00000  Uiso   1.00
O453   O     0.03125   0.78354   0.66415   0.00000  Uiso   1.00
O454   O     0.98593   0.77419   0.17564   0.00000  Uiso   1.00
N455   N     0.44461   0.98914   0.73513   0.00000  Uiso   1.00
N456   N     0.95006   0.76587   0.72453   0.00000  Uiso   1.00
N457   N     0.91778   0.75920   0.08902   0.00000  Uiso   1.00
N458   N     0.46237   0.08274   0.71522   0.00000  Uiso   1.00
N459   N     0.96783   0.85947   0.70462   0.00000  Uiso   1.00
N460   N     0.93555   0.85280   0.06911   0.00000  Uiso   1.00
C461   C     0.30226   0.83893   0.32097   0.00000  Uiso   1.00
C462   C     0.30967   0.87782   0.36182   0.00000  Uiso   1.00
C463   C     0.33338   0.85031   0.42755   0.00000  Uiso   1.00
C464   C     0.33633   0.89435   0.45606   0.00000  Uiso   1.00
C465   C     0.35086   0.94425   0.52496   0.00000  Uiso   1.00
C466   C     0.21050   0.88107   0.27013   0.00000  Uiso   1.00
C467   C     0.15083   0.85627   0.25877   0.00000  Uiso   1.00
C468   C     0.07030   0.90304   0.21009   0.00000  Uiso   1.00
C469   C     0.93087   0.95796   0.13661   0.00000  Uiso   1.00
C470   C     0.36129   0.84502   0.28554   0.00000  Uiso   1.00
C471   C     0.42840   0.78992   0.28712   0.00000  Uiso   1.00
C472   C     0.47482   0.80634   0.25139   0.00000  Uiso   1.00
C473   C     0.56953   0.80530   0.20184   0.00000  Uiso   1.00
C474   C     0.26535   0.96606   0.25470   0.00000  Uiso   1.00
C475   C     0.28962   0.94688   0.32582   0.00000  Uiso   1.00
C476   C     0.29254   0.99097   0.35423   0.00000  Uiso   1.00
C477   C     0.31625   0.96352   0.42000   0.00000  Uiso   1.00
C478   C     0.19045   0.95012   0.23413   0.00000  Uiso   1.00
C479   C     0.10999   0.99693   0.18545   0.00000  Uiso   1.00
C480   C     0.05021   0.97222   0.17403   0.00000  Uiso   1.00
C481   C     0.34125   0.91407   0.24954   0.00000  Uiso   1.00
C482   C     0.38756   0.93058   0.21380   0.00000  Uiso   1.00
C483   C     0.45473   0.87552   0.21533   0.00000  Uiso   1.00
H484   H     0.31786   0.78517   0.34899   0.00000  Uiso   1.00
H485   H     0.34888   0.79687   0.45539   0.00000  Uiso   1.00
H486   H     0.16637   0.80283   0.28663   0.00000  Uiso   1.00
H487   H     0.44390   0.73649   0.31498   0.00000  Uiso   1.00
H488   H     0.37441   0.84031   0.55748   0.00000  Uiso   1.00
H489   H     0.98956   0.85287   0.20163   0.00000  Uiso   1.00
H490   H     0.57479   0.71298   0.26140   0.00000  Uiso   1.00
H491   H     0.24973   0.01982   0.22667   0.00000  Uiso   1.00
H492   H     0.27702   0.04440   0.32636   0.00000  Uiso   1.00
H493   H     0.09450   0.05036   0.15760   0.00000  Uiso   1.00
H494   H     0.37203   0.98402   0.18595   0.00000  Uiso   1.00
H495   H     0.31608   0.04121   0.45276   0.00000  Uiso   1.00
H496   H     0.93123   0.05377   0.09690   0.00000  Uiso   1.00
H497   H     0.51646   0.91388   0.15668   0.00000  Uiso   1.00
O498   O     0.36440   0.95270   0.57291   0.00000  Uiso   1.00
O499   O     0.85950   0.96917   0.10604   0.00000  Uiso   1.00
O500   O     0.62731   0.78564   0.18446   0.00000  Uiso   1.00
N501   N     0.35695   0.88421   0.51915   0.00000  Uiso   1.00
N502   N     0.99714   0.89596   0.18646   0.00000  Uiso   1.00
N503   N     0.54427   0.76517   0.24233   0.00000  Uiso   1.00
N504   N     0.32557   0.99232   0.46280   0.00000  Uiso   1.00
N505   N     0.96576   0.00406   0.13011   0.00000  Uiso   1.00
N506   N     0.51288   0.87328   0.18598   0.00000  Uiso   1.00
C507   C     0.26337   0.83575   0.89501   0.00000  Uiso   1.00
C508   C     0.22228   0.87744   0.82251   0.00000  Uiso   1.00
C509   C     0.26574   0.87724   0.78178   0.00000  Uiso   1.00
C510   C     0.21652   0.91895   0.71695   0.00000  Uiso   1.00
C511   C     0.16632   0.97756   0.60790   0.00000  Uiso   1.00
C512   C     0.23814   0.88850   0.92216   0.00000  Uiso   1.00
C513   C     0.29494   0.89758   0.96521   0.00000  Uiso   1.00
C514   C     0.25907   0.94859   0.98427   0.00000  Uiso   1.00
C515   C     0.23350   0.02433   0.02996   0.00000  Uiso   1.00
C516   C     0.21684   0.79234   0.91111   0.00000  Uiso   1.00
C517   C     0.25572   0.72058   0.94490   0.00000  Uiso   1.00
C518   C     0.20192   0.69064   0.95467   0.00000  Uiso   1.00
C519   C     0.14327   0.61709   0.98321   0.00000  Uiso   1.00
C520   C     0.09867   0.91020   0.85231   0.00000  Uiso   1.00
C521   C     0.13282   0.91788   0.79932   0.00000  Uiso   1.00
C522   C     0.08352   0.95961   0.73453   0.00000  Uiso   1.00
C523   C     0.12690   0.95946   0.69371   0.00000  Uiso   1.00
C524   C     0.14868   0.92893   0.89896   0.00000  Uiso   1.00
C525   C     0.11272   0.97994   0.91796   0.00000  Uiso   1.00
C526   C     0.16945   0.98910   0.96103   0.00000  Uiso   1.00
C527   C     0.12737   0.83278   0.88791   0.00000  Uiso   1.00
C528   C     0.07350   0.80295   0.89764   0.00000  Uiso   1.00
C529   C     0.11229   0.73115   0.93143   0.00000  Uiso   1.00
H530   H     0.33302   0.80427   0.91308   0.00000  Uiso   1.00
H531   H     0.33497   0.84594   0.79975   0.00000  Uiso   1.00
H532   H     0.36417   0.86627   0.98316   0.00000  Uiso   1.00
H533   H     0.32495   0.68931   0.96284   0.00000  Uiso   1.00
H534   H     0.29769   0.90999   0.66388   0.00000  Uiso   1.00
H535   H     0.35925   0.95284   0.05062   0.00000  Uiso   1.00
H536   H     0.27656   0.57967   0.00779   0.00000  Uiso   1.00
H537   H     0.02902   0.94168   0.83425   0.00000  Uiso   1.00
H538   H     0.01429   0.99089   0.71659   0.00000  Uiso   1.00
H539   H     0.04349   0.01122   0.90000   0.00000  Uiso   1.00
H540   H     0.00427   0.83426   0.87968   0.00000  Uiso   1.00
H541   H     0.03741   0.02764   0.59639   0.00000  Uiso   1.00
H542   H     0.09897   0.07049   0.98313   0.00000  Uiso   1.00
H543   H     0.01628   0.69732   0.94029   0.00000  Uiso   1.00
O544   O     0.16335   0.99873   0.55416   0.00000  Uiso   1.00
O545   O     0.24411   0.05493   0.06156   0.00000  Uiso   1.00
O546   O     0.13563   0.56535   0.00535   0.00000  Uiso   1.00
N547   N     0.23845   0.93092   0.66414   0.00000  Uiso   1.00
N548   N     0.29601   0.97099   0.02571   0.00000  Uiso   1.00
N549   N     0.21870   0.62211   0.98568   0.00000  Uiso   1.00
N550   N     0.09840   0.99422   0.62782   0.00000  Uiso   1.00
N551   N     0.15595   0.03429   0.98939   0.00000  Uiso   1.00
N552   N     0.07865   0.68541   0.94936   0.00000  Uiso   1.00
