data_job_04622
_audit_creation_date              2018-12-19
_audit_creation_method            'Materials Studio'
_symmetry_space_group_name_H-M    'P1'
_symmetry_Int_Tables_number       1
_symmetry_cell_setting            triclinic
loop_
_symmetry_equiv_pos_as_xyz
  x,y,z
_cell_length_a                    11.0597
_cell_length_b                    11.0597
_cell_length_c                    34.3539
_cell_angle_alpha                 90.0000
_cell_angle_beta                  90.0000
_cell_angle_gamma                 120.0000
loop_
_atom_site_label
_atom_site_type_symbol
_atom_site_fract_x
_atom_site_fract_y
_atom_site_fract_z
_atom_site_U_iso_or_equiv
_atom_site_adp_type
_atom_site_occupancy
C1     C     0.32041   0.41114   0.66008   0.00000  Uiso   1.00
C2     C     0.37478   0.35256   0.69136   0.00000  Uiso   1.00
C3     C     0.41053   0.40250   0.72912   0.00000  Uiso   1.00
C4     C     0.45820   0.33461   0.75330   0.00000  Uiso   1.00
C5     C     0.54095   0.26101   0.80386   0.00000  Uiso   1.00
C6     C     0.41976   0.44808   0.62564   0.00000  Uiso   1.00
C7     C     0.49331   0.57832   0.60814   0.00000  Uiso   1.00
C8     C     0.57883   0.59083   0.57699   0.00000  Uiso   1.00
C9     C     0.73134   0.66549   0.52550   0.00000  Uiso   1.00
C10    C     0.18115   0.28930   0.64665   0.00000  Uiso   1.00
C11    C     0.05407   0.28604   0.64682   0.00000  Uiso   1.00
C12    C     0.93869   0.16487   0.63336   0.00000  Uiso   1.00
C13    C     0.72071   0.99300   0.61450   0.00000  Uiso   1.00
C14    C     0.34149   0.20177   0.63587   0.00000  Uiso   1.00
C15    C     0.38624   0.23884   0.67821   0.00000  Uiso   1.00
C16    C     0.43386   0.17086   0.70234   0.00000  Uiso   1.00
C17    C     0.46967   0.22068   0.74013   0.00000  Uiso   1.00
C18    C     0.43122   0.33436   0.61249   0.00000  Uiso   1.00
C19    C     0.51664   0.34668   0.58136   0.00000  Uiso   1.00
C20    C     0.59031   0.47690   0.56382   0.00000  Uiso   1.00
C21    C     0.19260   0.17557   0.63351   0.00000  Uiso   1.00
C22    C     0.07740   0.05439   0.62004   0.00000  Uiso   1.00
C23    C     0.95017   0.05095   0.62019   0.00000  Uiso   1.00
H24    H     0.31150   0.49968   0.67031   0.00000  Uiso   1.00
H25    H     0.40166   0.49052   0.73928   0.00000  Uiso   1.00
H26    H     0.48442   0.66630   0.61832   0.00000  Uiso   1.00
H27    H     0.04524   0.37406   0.65699   0.00000  Uiso   1.00
H28    H     0.50673   0.43025   0.80995   0.00000  Uiso   1.00
H29    H     0.68118   0.80088   0.55488   0.00000  Uiso   1.00
H30    H     0.75510   0.18465   0.63643   0.00000  Uiso   1.00
H31    H     0.35041   0.11323   0.62564   0.00000  Uiso   1.00
H32    H     0.44271   0.08286   0.69216   0.00000  Uiso   1.00
H33    H     0.52547   0.25865   0.57119   0.00000  Uiso   1.00
H34    H     0.08630   0.96641   0.60987   0.00000  Uiso   1.00
H35    H     0.54005   0.09938   0.77170   0.00000  Uiso   1.00
H36    H     0.71451   0.47002   0.51663   0.00000  Uiso   1.00
H37    H     0.78842   0.85378   0.59818   0.00000  Uiso   1.00
O38    O     0.58345   0.25184   0.83538   0.00000  Uiso   1.00
O39    O     0.81231   0.73809   0.50074   0.00000  Uiso   1.00
O40    O     0.59731   0.92960   0.60774   0.00000  Uiso   1.00
N41    N     0.50188   0.35653   0.79182   0.00000  Uiso   1.00
N42    N     0.66500   0.70306   0.55335   0.00000  Uiso   1.00
N43    N     0.79920   0.12694   0.62958   0.00000  Uiso   1.00
N44    N     0.51980   0.17849   0.77124   0.00000  Uiso   1.00
N45    N     0.68293   0.52502   0.53277   0.00000  Uiso   1.00
N46    N     0.81713   0.94890   0.60900   0.00000  Uiso   1.00
C47    C     0.43193   0.33283   0.34962   0.00000  Uiso   1.00
C48    C     0.38977   0.36649   0.31061   0.00000  Uiso   1.00
C49    C     0.46780   0.40131   0.27660   0.00000  Uiso   1.00
C50    C     0.41105   0.42845   0.24398   0.00000  Uiso   1.00
C51    C     0.36541   0.48191   0.18321   0.00000  Uiso   1.00
C52    C     0.42790   0.43425   0.37895   0.00000  Uiso   1.00
C53    C     0.53800   0.52604   0.40240   0.00000  Uiso   1.00
C54    C     0.51333   0.61021   0.42732   0.00000  Uiso   1.00
C55    C     0.52687   0.76881   0.47266   0.00000  Uiso   1.00
C56    C     0.31395   0.18835   0.36105   0.00000  Uiso   1.00
C57    C     0.32823   0.07338   0.36947   0.00000  Uiso   1.00
C58    C     0.20763   0.95052   0.37933   0.00000  Uiso   1.00
C59    C     0.04424   0.72731   0.39689   0.00000  Uiso   1.00
C60    C     0.19237   0.31908   0.35218   0.00000  Uiso   1.00
C61    C     0.25965   0.35902   0.31200   0.00000  Uiso   1.00
C62    C     0.20276   0.38610   0.27943   0.00000  Uiso   1.00
C63    C     0.28069   0.42096   0.24538   0.00000  Uiso   1.00
C64    C     0.29779   0.42679   0.38034   0.00000  Uiso   1.00
C65    C     0.27295   0.51083   0.40523   0.00000  Uiso   1.00
C66    C     0.38298   0.60273   0.42871   0.00000  Uiso   1.00
C67    C     0.18383   0.18088   0.36244   0.00000  Uiso   1.00
C68    C     0.06318   0.05817   0.37230   0.00000  Uiso   1.00
C69    C     0.07727   0.94304   0.38073   0.00000  Uiso   1.00
H70    H     0.53323   0.33865   0.34853   0.00000  Uiso   1.00
H71    H     0.56850   0.40710   0.27553   0.00000  Uiso   1.00
H72    H     0.63868   0.53179   0.40132   0.00000  Uiso   1.00
H73    H     0.42894   0.07920   0.36839   0.00000  Uiso   1.00
H74    H     0.55025   0.47974   0.19521   0.00000  Uiso   1.00
H75    H     0.69820   0.74262   0.46045   0.00000  Uiso   1.00
H76    H     0.25593   0.78825   0.39101   0.00000  Uiso   1.00
H77    H     0.09106   0.31327   0.35326   0.00000  Uiso   1.00
H78    H     0.10206   0.38032   0.28052   0.00000  Uiso   1.00
H79    H     0.17224   0.50502   0.40630   0.00000  Uiso   1.00
H80    H     0.96251   0.05243   0.37337   0.00000  Uiso   1.00
H81    H     0.17167   0.45801   0.19926   0.00000  Uiso   1.00
H82    H     0.31962   0.72090   0.46450   0.00000  Uiso   1.00
H83    H     0.87735   0.76652   0.39506   0.00000  Uiso   1.00
O84    O     0.37620   0.51349   0.14930   0.00000  Uiso   1.00
O85    O     0.57030   0.85836   0.49728   0.00000  Uiso   1.00
O86    O     0.99005   0.60625   0.40618   0.00000  Uiso   1.00
N87    N     0.45962   0.46539   0.20615   0.00000  Uiso   1.00
N88    N     0.59796   0.71120   0.45412   0.00000  Uiso   1.00
N89    N     0.18448   0.81894   0.38921   0.00000  Uiso   1.00
N90    N     0.25591   0.45370   0.20832   0.00000  Uiso   1.00
N91    N     0.39425   0.69950   0.45630   0.00000  Uiso   1.00
N92    N     0.98077   0.80725   0.39139   0.00000  Uiso   1.00
C93    C     0.58886   0.90927   0.32675   0.00000  Uiso   1.00
C94    C     0.64744   0.02222   0.35803   0.00000  Uiso   1.00
C95    C     0.59750   0.00803   0.39579   0.00000  Uiso   1.00
C96    C     0.66539   0.12358   0.41997   0.00000  Uiso   1.00
C97    C     0.73899   0.27994   0.47053   0.00000  Uiso   1.00
C98    C     0.55192   0.97168   0.29230   0.00000  Uiso   1.00
C99    C     0.42168   0.91499   0.27481   0.00000  Uiso   1.00
C100   C     0.40917   0.98800   0.24366   0.00000  Uiso   1.00
C101   C     0.33451   0.06585   0.19217   0.00000  Uiso   1.00
C102   C     0.71070   0.89185   0.31332   0.00000  Uiso   1.00
C103   C     0.71396   0.76802   0.31348   0.00000  Uiso   1.00
C104   C     0.83513   0.77382   0.30002   0.00000  Uiso   1.00
C105   C     0.00700   0.72771   0.28117   0.00000  Uiso   1.00
C106   C     0.79823   0.13973   0.30254   0.00000  Uiso   1.00
C107   C     0.76116   0.14739   0.34488   0.00000  Uiso   1.00
C108   C     0.82914   0.26300   0.36901   0.00000  Uiso   1.00
C109   C     0.77932   0.24898   0.40680   0.00000  Uiso   1.00
C110   C     0.66564   0.09685   0.27916   0.00000  Uiso   1.00
C111   C     0.65332   0.16996   0.24803   0.00000  Uiso   1.00
C112   C     0.52310   0.11340   0.23049   0.00000  Uiso   1.00
C113   C     0.82443   0.01703   0.30017   0.00000  Uiso   1.00
C114   C     0.94561   0.02301   0.28671   0.00000  Uiso   1.00
C115   C     0.94905   0.89922   0.28685   0.00000  Uiso   1.00
H116   H     0.50032   0.81182   0.33698   0.00000  Uiso   1.00
H117   H     0.50948   0.91114   0.40595   0.00000  Uiso   1.00
H118   H     0.33370   0.81812   0.28499   0.00000  Uiso   1.00
H119   H     0.62594   0.67118   0.32366   0.00000  Uiso   1.00
H120   H     0.56975   0.07648   0.47661   0.00000  Uiso   1.00
H121   H     0.19912   0.88030   0.22154   0.00000  Uiso   1.00
H122   H     0.81535   0.57045   0.30310   0.00000  Uiso   1.00
H123   H     0.88677   0.23719   0.29230   0.00000  Uiso   1.00
H124   H     0.91714   0.35985   0.35883   0.00000  Uiso   1.00
H125   H     0.74135   0.26682   0.23786   0.00000  Uiso   1.00
H126   H     0.03359   0.11989   0.27654   0.00000  Uiso   1.00
H127   H     0.90062   0.44067   0.43836   0.00000  Uiso   1.00
H128   H     0.52998   0.24449   0.18329   0.00000  Uiso   1.00
H129   H     0.14622   0.93465   0.26485   0.00000  Uiso   1.00
O130   O     0.74816   0.33161   0.50205   0.00000  Uiso   1.00
O131   O     0.26191   0.07421   0.16741   0.00000  Uiso   1.00
O132   O     0.07040   0.66771   0.27440   0.00000  Uiso   1.00
N133   N     0.64347   0.14535   0.45848   0.00000  Uiso   1.00
N134   N     0.29694   0.96194   0.22001   0.00000  Uiso   1.00
N135   N     0.87306   0.67225   0.29625   0.00000  Uiso   1.00
N136   N     0.82151   0.34132   0.43790   0.00000  Uiso   1.00
N137   N     0.47498   0.15791   0.19943   0.00000  Uiso   1.00
N138   N     0.05110   0.86822   0.27567   0.00000  Uiso   1.00
C139   C     0.66717   0.09910   0.01628   0.00000  Uiso   1.00
C140   C     0.63351   0.02328   0.97727   0.00000  Uiso   1.00
C141   C     0.59869   0.06649   0.94326   0.00000  Uiso   1.00
C142   C     0.57155   0.98260   0.91065   0.00000  Uiso   1.00
C143   C     0.51809   0.88350   0.84987   0.00000  Uiso   1.00
C144   C     0.56575   0.99365   0.04561   0.00000  Uiso   1.00
C145   C     0.47396   0.01196   0.06907   0.00000  Uiso   1.00
C146   C     0.38979   0.90313   0.09399   0.00000  Uiso   1.00
C147   C     0.23119   0.75807   0.13933   0.00000  Uiso   1.00
C148   C     0.81165   0.12560   0.02772   0.00000  Uiso   1.00
C149   C     0.92662   0.25485   0.03613   0.00000  Uiso   1.00
C150   C     0.04948   0.25711   0.04600   0.00000  Uiso   1.00
C151   C     0.27269   0.31693   0.06355   0.00000  Uiso   1.00
C152   C     0.68092   0.87329   0.01884   0.00000  Uiso   1.00
C153   C     0.64098   0.90063   0.97867   0.00000  Uiso   1.00
C154   C     0.61390   0.81665   0.94610   0.00000  Uiso   1.00
C155   C     0.57904   0.85973   0.91204   0.00000  Uiso   1.00
C156   C     0.57321   0.87100   0.04701   0.00000  Uiso   1.00
C157   C     0.48917   0.76212   0.07190   0.00000  Uiso   1.00
C158   C     0.39727   0.78025   0.09538   0.00000  Uiso   1.00
C159   C     0.81912   0.00295   0.02911   0.00000  Uiso   1.00
C160   C     0.94183   0.00501   0.03897   0.00000  Uiso   1.00
C161   C     0.05696   0.13424   0.04739   0.00000  Uiso   1.00
H162   H     0.66135   0.19458   0.01520   0.00000  Uiso   1.00
H163   H     0.59290   0.16141   0.94220   0.00000  Uiso   1.00
H164   H     0.46821   0.10689   0.06798   0.00000  Uiso   1.00
H165   H     0.92080   0.34974   0.03505   0.00000  Uiso   1.00
H166   H     0.52026   0.07051   0.86188   0.00000  Uiso   1.00
H167   H     0.25738   0.95557   0.12711   0.00000  Uiso   1.00
H168   H     0.21175   0.46768   0.05768   0.00000  Uiso   1.00
H169   H     0.68673   0.77779   0.01993   0.00000  Uiso   1.00
H170   H     0.61968   0.72174   0.94718   0.00000  Uiso   1.00
H171   H     0.49498   0.66722   0.07297   0.00000  Uiso   1.00
H172   H     0.94757   0.91008   0.04004   0.00000  Uiso   1.00
H173   H     0.54199   0.71366   0.86592   0.00000  Uiso   1.00
H174   H     0.27910   0.59872   0.13116   0.00000  Uiso   1.00
H175   H     0.23348   0.11083   0.06172   0.00000  Uiso   1.00
O176   O     0.48651   0.86271   0.81597   0.00000  Uiso   1.00
O177   O     0.14164   0.71193   0.16395   0.00000  Uiso   1.00
O178   O     0.39375   0.38380   0.07285   0.00000  Uiso   1.00
N179   N     0.53461   0.99423   0.87281   0.00000  Uiso   1.00
N180   N     0.28880   0.88676   0.12079   0.00000  Uiso   1.00
N181   N     0.18106   0.36554   0.05588   0.00000  Uiso   1.00
N182   N     0.54630   0.80221   0.87499   0.00000  Uiso   1.00
N183   N     0.30050   0.69475   0.12296   0.00000  Uiso   1.00
N184   N     0.19275   0.17352   0.05806   0.00000  Uiso   1.00
C185   C     0.09073   0.67959   0.99341   0.00000  Uiso   1.00
C186   C     0.97778   0.62522   0.02469   0.00000  Uiso   1.00
C187   C     0.99197   0.58947   0.06245   0.00000  Uiso   1.00
C188   C     0.87642   0.54180   0.08664   0.00000  Uiso   1.00
C189   C     0.72006   0.45905   0.13720   0.00000  Uiso   1.00
C190   C     0.02832   0.58024   0.95897   0.00000  Uiso   1.00
C191   C     0.08501   0.50669   0.94147   0.00000  Uiso   1.00
C192   C     0.01200   0.42117   0.91033   0.00000  Uiso   1.00
C193   C     0.93415   0.26866   0.85884   0.00000  Uiso   1.00
C194   C     0.10815   0.81885   0.97999   0.00000  Uiso   1.00
C195   C     0.23198   0.94593   0.98015   0.00000  Uiso   1.00
C196   C     0.22618   0.06131   0.96669   0.00000  Uiso   1.00
C197   C     0.27229   0.27929   0.94783   0.00000  Uiso   1.00
C198   C     0.86027   0.65851   0.96921   0.00000  Uiso   1.00
C199   C     0.85261   0.61376   0.01154   0.00000  Uiso   1.00
C200   C     0.73700   0.56614   0.03567   0.00000  Uiso   1.00
C201   C     0.75102   0.53033   0.07347   0.00000  Uiso   1.00
C202   C     0.90315   0.56878   0.94582   0.00000  Uiso   1.00
C203   C     0.83004   0.48336   0.91469   0.00000  Uiso   1.00
C204   C     0.88660   0.40969   0.89716   0.00000  Uiso   1.00
C205   C     0.98297   0.80740   0.96684   0.00000  Uiso   1.00
C206   C     0.97699   0.92260   0.95337   0.00000  Uiso   1.00
C207   C     0.10078   0.04983   0.95352   0.00000  Uiso   1.00
H208   H     0.18818   0.68850   0.00365   0.00000  Uiso   1.00
H209   H     0.08886   0.59834   0.07262   0.00000  Uiso   1.00
H210   H     0.18188   0.51558   0.95165   0.00000  Uiso   1.00
H211   H     0.32882   0.95476   0.99033   0.00000  Uiso   1.00
H212   H     0.92352   0.49327   0.14328   0.00000  Uiso   1.00
H213   H     0.11970   0.31882   0.88821   0.00000  Uiso   1.00
H214   H     0.42955   0.24490   0.96976   0.00000  Uiso   1.00
H215   H     0.76281   0.64959   0.95897   0.00000  Uiso   1.00
H216   H     0.64015   0.55729   0.02549   0.00000  Uiso   1.00
H217   H     0.73318   0.47453   0.90453   0.00000  Uiso   1.00
H218   H     0.88011   0.91370   0.94320   0.00000  Uiso   1.00
H219   H     0.55933   0.45995   0.10503   0.00000  Uiso   1.00
H220   H     0.75551   0.28549   0.84996   0.00000  Uiso   1.00
H221   H     0.06535   0.21158   0.93151   0.00000  Uiso   1.00
O222   O     0.66839   0.41655   0.16872   0.00000  Uiso   1.00
O223   O     0.92579   0.18769   0.83407   0.00000  Uiso   1.00
O224   O     0.33229   0.40269   0.94107   0.00000  Uiso   1.00
N225   N     0.85465   0.49812   0.12515   0.00000  Uiso   1.00
N226   N     0.03806   0.33500   0.88668   0.00000  Uiso   1.00
N227   N     0.32775   0.20080   0.96292   0.00000  Uiso   1.00
N228   N     0.65868   0.48020   0.10457   0.00000  Uiso   1.00
N229   N     0.84209   0.31707   0.86610   0.00000  Uiso   1.00
N230   N     0.13178   0.18287   0.94233   0.00000  Uiso   1.00
C231   C     0.90090   0.56807   0.68295   0.00000  Uiso   1.00
C232   C     0.97672   0.61023   0.64394   0.00000  Uiso   1.00
C233   C     0.93351   0.53220   0.60993   0.00000  Uiso   1.00
C234   C     0.01740   0.58895   0.57732   0.00000  Uiso   1.00
C235   C     0.11650   0.63459   0.51654   0.00000  Uiso   1.00
C236   C     0.00635   0.57210   0.71228   0.00000  Uiso   1.00
C237   C     0.98804   0.46200   0.73573   0.00000  Uiso   1.00
C238   C     0.09687   0.48667   0.76065   0.00000  Uiso   1.00
C239   C     0.24193   0.47313   0.80599   0.00000  Uiso   1.00
C240   C     0.87440   0.68605   0.69438   0.00000  Uiso   1.00
C241   C     0.74515   0.67177   0.70280   0.00000  Uiso   1.00
C242   C     0.74289   0.79237   0.71266   0.00000  Uiso   1.00
C243   C     0.68307   0.95576   0.73022   0.00000  Uiso   1.00
C244   C     0.12671   0.80763   0.68551   0.00000  Uiso   1.00
C245   C     0.09937   0.74035   0.64533   0.00000  Uiso   1.00
C246   C     0.18335   0.79724   0.61276   0.00000  Uiso   1.00
C247   C     0.14027   0.71931   0.57871   0.00000  Uiso   1.00
C248   C     0.12900   0.70221   0.71367   0.00000  Uiso   1.00
C249   C     0.23788   0.72705   0.73857   0.00000  Uiso   1.00
C250   C     0.21975   0.61702   0.76205   0.00000  Uiso   1.00
C251   C     0.99705   0.81617   0.69578   0.00000  Uiso   1.00
C252   C     0.99499   0.93682   0.70563   0.00000  Uiso   1.00
C253   C     0.86576   0.92273   0.71406   0.00000  Uiso   1.00
H254   H     0.80542   0.46677   0.68187   0.00000  Uiso   1.00
H255   H     0.83859   0.43150   0.60887   0.00000  Uiso   1.00
H256   H     0.89311   0.36132   0.73465   0.00000  Uiso   1.00
H257   H     0.65026   0.57106   0.70172   0.00000  Uiso   1.00
H258   H     0.92949   0.44975   0.52855   0.00000  Uiso   1.00
H259   H     0.04443   0.30180   0.79378   0.00000  Uiso   1.00
H260   H     0.53232   0.74407   0.72434   0.00000  Uiso   1.00
H261   H     0.22221   0.90894   0.68660   0.00000  Uiso   1.00
H262   H     0.27826   0.89794   0.61385   0.00000  Uiso   1.00
H263   H     0.33278   0.82776   0.73964   0.00000  Uiso   1.00
H264   H     0.08992   0.03749   0.70671   0.00000  Uiso   1.00
H265   H     0.28634   0.82833   0.53259   0.00000  Uiso   1.00
H266   H     0.40128   0.68038   0.79783   0.00000  Uiso   1.00
H267   H     0.88917   0.12265   0.72839   0.00000  Uiso   1.00
O268   O     0.13729   0.62380   0.48263   0.00000  Uiso   1.00
O269   O     0.28807   0.42970   0.83062   0.00000  Uiso   1.00
O270   O     0.61620   0.00995   0.73951   0.00000  Uiso   1.00
N271   N     0.00577   0.54038   0.53948   0.00000  Uiso   1.00
N272   N     0.11324   0.40204   0.78745   0.00000  Uiso   1.00
N273   N     0.63446   0.81552   0.72255   0.00000  Uiso   1.00
N274   N     0.19779   0.74409   0.54166   0.00000  Uiso   1.00
N275   N     0.30525   0.60575   0.78963   0.00000  Uiso   1.00
N276   N     0.82648   0.01923   0.72472   0.00000  Uiso   1.00
