data_job_06546
_audit_creation_date              2018-12-19
_audit_creation_method            'Materials Studio'
_symmetry_space_group_name_H-M    'P1'
_symmetry_Int_Tables_number       1
_symmetry_cell_setting            triclinic
loop_
_symmetry_equiv_pos_as_xyz
  x,y,z
_cell_length_a                    21.7237
_cell_length_b                    22.6922
_cell_length_c                    20.4933
_cell_angle_alpha                 114.0300
_cell_angle_beta                  93.2333
_cell_angle_gamma                 111.3320
loop_
_atom_site_label
_atom_site_type_symbol
_atom_site_fract_x
_atom_site_fract_y
_atom_site_fract_z
_atom_site_U_iso_or_equiv
_atom_site_adp_type
_atom_site_occupancy
C1     C     0.73430   0.69461   0.33228   0.00000  Uiso   1.00
C2     C     0.70468   0.74476   0.32795   0.00000  Uiso   1.00
C3     C     0.73930   0.81831   0.35849   0.00000  Uiso   1.00
C4     C     0.70321   0.85465   0.34845   0.00000  Uiso   1.00
C5     C     0.66760   0.93800   0.34772   0.00000  Uiso   1.00
C6     C     0.68815   0.65282   0.36650   0.00000  Uiso   1.00
C7     C     0.70887   0.64906   0.42944   0.00000  Uiso   1.00
C8     C     0.65886   0.60799   0.45184   0.00000  Uiso   1.00
C9     C     0.59759   0.54855   0.51093   0.00000  Uiso   1.00
C10    C     0.72394   0.64085   0.25296   0.00000  Uiso   1.00
C11    C     0.77475   0.62701   0.22044   0.00000  Uiso   1.00
C12    C     0.75487   0.57585   0.14726   0.00000  Uiso   1.00
C13    C     0.74917   0.49783   0.03006   0.00000  Uiso   1.00
C14    C     0.60862   0.62836   0.26014   0.00000  Uiso   1.00
C15    C     0.63642   0.70877   0.28877   0.00000  Uiso   1.00
C16    C     0.60026   0.74501   0.27867   0.00000  Uiso   1.00
C17    C     0.63483   0.81860   0.30919   0.00000  Uiso   1.00
C18    C     0.61989   0.61683   0.32732   0.00000  Uiso   1.00
C19    C     0.56983   0.57575   0.34963   0.00000  Uiso   1.00
C20    C     0.59048   0.57194   0.41259   0.00000  Uiso   1.00
C21    C     0.65568   0.60486   0.21377   0.00000  Uiso   1.00
C22    C     0.63571   0.55371   0.14062   0.00000  Uiso   1.00
C23    C     0.68648   0.53980   0.10800   0.00000  Uiso   1.00
H24    H     0.78744   0.72263   0.36279   0.00000  Uiso   1.00
H25    H     0.79213   0.84614   0.38882   0.00000  Uiso   1.00
H26    H     0.76170   0.67691   0.45975   0.00000  Uiso   1.00
H27    H     0.82757   0.65487   0.25079   0.00000  Uiso   1.00
H28    H     0.76722   0.96722   0.40042   0.00000  Uiso   1.00
H29    H     0.70307   0.61035   0.54997   0.00000  Uiso   1.00
H30    H     0.84196   0.56388   0.10932   0.00000  Uiso   1.00
H31    H     0.55548   0.60034   0.22963   0.00000  Uiso   1.00
H32    H     0.54744   0.71715   0.24835   0.00000  Uiso   1.00
H33    H     0.51702   0.54791   0.31928   0.00000  Uiso   1.00
H34    H     0.58288   0.52587   0.11032   0.00000  Uiso   1.00
H35    H     0.56862   0.86252   0.28641   0.00000  Uiso   1.00
H36    H     0.50447   0.50565   0.43596   0.00000  Uiso   1.00
H37    H     0.64336   0.45918   0.99531   0.00000  Uiso   1.00
O38    O     0.66681   0.99392   0.35815   0.00000  Uiso   1.00
O39    O     0.58265   0.52572   0.55435   0.00000  Uiso   1.00
O40    O     0.76488   0.46475   0.97623   0.00000  Uiso   1.00
N41    N     0.72158   0.92655   0.37100   0.00000  Uiso   1.00
N42    N     0.66161   0.59291   0.51084   0.00000  Uiso   1.00
N43    N     0.79146   0.54944   0.09887   0.00000  Uiso   1.00
N44    N     0.61472   0.87021   0.30965   0.00000  Uiso   1.00
N45    N     0.55474   0.53657   0.44949   0.00000  Uiso   1.00
N46    N     0.68460   0.49311   0.03752   0.00000  Uiso   1.00
C47    C     0.35259   0.77183   0.67239   0.00000  Uiso   1.00
C48    C     0.37186   0.75786   0.73564   0.00000  Uiso   1.00
C49    C     0.39473   0.80723   0.80958   0.00000  Uiso   1.00
C50    C     0.40972   0.78403   0.85893   0.00000  Uiso   1.00
C51    C     0.44084   0.77301   0.96076   0.00000  Uiso   1.00
C52    C     0.39664   0.75239   0.61936   0.00000  Uiso   1.00
C53    C     0.44035   0.79716   0.59554   0.00000  Uiso   1.00
C54    C     0.47619   0.76934   0.54701   0.00000  Uiso   1.00
C55    C     0.54574   0.74981   0.46827   0.00000  Uiso   1.00
C56    C     0.27963   0.71682   0.63212   0.00000  Uiso   1.00
C57    C     0.22495   0.73167   0.61900   0.00000  Uiso   1.00
C58    C     0.16228   0.67390   0.58118   0.00000  Uiso   1.00
C59    C     0.05016   0.59914   0.52225   0.00000  Uiso   1.00
C60    C     0.33853   0.64281   0.62854   0.00000  Uiso   1.00
C61    C     0.36422   0.68779   0.71181   0.00000  Uiso   1.00
C62    C     0.37918   0.66449   0.76107   0.00000  Uiso   1.00
C63    C     0.40207   0.71382   0.83507   0.00000  Uiso   1.00
C64    C     0.38901   0.68232   0.59554   0.00000  Uiso   1.00
C65    C     0.42479   0.65442   0.54703   0.00000  Uiso   1.00
C66    C     0.46854   0.69914   0.52314   0.00000  Uiso   1.00
C67    C     0.27199   0.64674   0.60830   0.00000  Uiso   1.00
C68    C     0.20940   0.58893   0.57049   0.00000  Uiso   1.00
C69    C     0.15463   0.60370   0.55732   0.00000  Uiso   1.00
H70    H     0.35854   0.82638   0.69093   0.00000  Uiso   1.00
H71    H     0.40064   0.86146   0.82799   0.00000  Uiso   1.00
H72    H     0.44624   0.85138   0.61398   0.00000  Uiso   1.00
H73    H     0.23088   0.78591   0.63744   0.00000  Uiso   1.00
H74    H     0.44398   0.86946   0.96945   0.00000  Uiso   1.00
H75    H     0.54011   0.84820   0.51817   0.00000  Uiso   1.00
H76    H     0.08598   0.71013   0.56764   0.00000  Uiso   1.00
H77    H     0.33258   0.58825   0.60999   0.00000  Uiso   1.00
H78    H     0.37326   0.61026   0.74262   0.00000  Uiso   1.00
H79    H     0.41886   0.60019   0.52860   0.00000  Uiso   1.00
H80    H     0.20351   0.53471   0.55206   0.00000  Uiso   1.00
H81    H     0.42176   0.66558   0.90015   0.00000  Uiso   1.00
H82    H     0.51789   0.64432   0.44887   0.00000  Uiso   1.00
H83    H     0.06376   0.50625   0.49834   0.00000  Uiso   1.00
O84    O     0.46012   0.78630   0.02350   0.00000  Uiso   1.00
O85    O     0.58623   0.75841   0.43144   0.00000  Uiso   1.00
O86    O     0.99043   0.57727   0.49634   0.00000  Uiso   1.00
N87    N     0.43315   0.81845   0.93494   0.00000  Uiso   1.00
N88    N     0.52304   0.79858   0.51303   0.00000  Uiso   1.00
N89    N     0.09847   0.66949   0.55926   0.00000  Uiso   1.00
N90    N     0.42120   0.70874   0.89765   0.00000  Uiso   1.00
N91    N     0.51108   0.68887   0.47574   0.00000  Uiso   1.00
N92    N     0.08652   0.55979   0.52197   0.00000  Uiso   1.00
C93    C     0.74303   0.36780   0.75538   0.00000  Uiso   1.00
C94    C     0.80892   0.37758   0.72965   0.00000  Uiso   1.00
C95    C     0.87214   0.39940   0.77284   0.00000  Uiso   1.00
C96    C     0.92615   0.40510   0.73903   0.00000  Uiso   1.00
C97    C     0.02983   0.42269   0.71039   0.00000  Uiso   1.00
C98    C     0.71652   0.41495   0.73844   0.00000  Uiso   1.00
C99    C     0.70205   0.46819   0.78902   0.00000  Uiso   1.00
C100   C     0.67826   0.50534   0.76260   0.00000  Uiso   1.00
C101   C     0.63845   0.58091   0.74759   0.00000  Uiso   1.00
C102   C     0.69234   0.29121   0.70427   0.00000  Uiso   1.00
C103   C     0.65752   0.24041   0.72613   0.00000  Uiso   1.00
C104   C     0.61336   0.17338   0.67094   0.00000  Uiso   1.00
C105   C     0.53600   0.05682   0.60290   0.00000  Uiso   1.00
C106   C     0.72652   0.33910   0.61853   0.00000  Uiso   1.00
C107   C     0.79995   0.36199   0.65532   0.00000  Uiso   1.00
C108   C     0.85388   0.36765   0.62143   0.00000  Uiso   1.00
C109   C     0.91717   0.38948   0.66456   0.00000  Uiso   1.00
C110   C     0.70756   0.39937   0.66411   0.00000  Uiso   1.00
C111   C     0.68378   0.43644   0.63760   0.00000  Uiso   1.00
C112   C     0.66928   0.48972   0.68813   0.00000  Uiso   1.00
C113   C     0.68338   0.27562   0.62994   0.00000  Uiso   1.00
C114   C     0.63926   0.20866   0.57471   0.00000  Uiso   1.00
C115   C     0.60438   0.15776   0.59648   0.00000  Uiso   1.00
H116   H     0.75001   0.37994   0.81325   0.00000  Uiso   1.00
H117   H     0.87906   0.41147   0.83037   0.00000  Uiso   1.00
H118   H     0.70899   0.48023   0.84653   0.00000  Uiso   1.00
H119   H     0.66447   0.25249   0.78366   0.00000  Uiso   1.00
H120   H     0.01819   0.43958   0.81657   0.00000  Uiso   1.00
H121   H     0.65955   0.58456   0.85065   0.00000  Uiso   1.00
H122   H     0.56568   0.10431   0.71806   0.00000  Uiso   1.00
H123   H     0.71954   0.32697   0.56065   0.00000  Uiso   1.00
H124   H     0.84692   0.35559   0.56390   0.00000  Uiso   1.00
H125   H     0.67685   0.42436   0.58008   0.00000  Uiso   1.00
H126   H     0.63233   0.19661   0.51720   0.00000  Uiso   1.00
H127   H     0.99211   0.39423   0.60030   0.00000  Uiso   1.00
H128   H     0.63346   0.53921   0.63439   0.00000  Uiso   1.00
H129   H     0.53959   0.05896   0.50179   0.00000  Uiso   1.00
O130   O     0.08950   0.43671   0.71513   0.00000  Uiso   1.00
O131   O     0.61897   0.62691   0.75986   0.00000  Uiso   1.00
O132   O     0.49581   0.99684   0.58590   0.00000  Uiso   1.00
N133   N     0.99457   0.42496   0.76522   0.00000  Uiso   1.00
N134   N     0.65927   0.56052   0.79709   0.00000  Uiso   1.00
N135   N     0.57149   0.11153   0.67313   0.00000  Uiso   1.00
N136   N     0.98053   0.40056   0.64884   0.00000  Uiso   1.00
N137   N     0.64524   0.53612   0.68072   0.00000  Uiso   1.00
N138   N     0.55746   0.08713   0.55675   0.00000  Uiso   1.00
C139   C     0.19692   0.81396   0.23301   0.00000  Uiso   1.00
C140   C     0.16258   0.80846   0.29449   0.00000  Uiso   1.00
C141   C     0.19380   0.81620   0.36028   0.00000  Uiso   1.00
C142   C     0.15363   0.80926   0.40939   0.00000  Uiso   1.00
C143   C     0.11080   0.80291   0.50732   0.00000  Uiso   1.00
C144   C     0.18584   0.87149   0.22040   0.00000  Uiso   1.00
C145   C     0.23662   0.93222   0.22390   0.00000  Uiso   1.00
C146   C     0.21602   0.97834   0.21064   0.00000  Uiso   1.00
C147   C     0.20930   0.06982   0.19349   0.00000  Uiso   1.00
C148   C     0.15540   0.74406   0.16376   0.00000  Uiso   1.00
C149   C     0.18058   0.69765   0.11960   0.00000  Uiso   1.00
C150   C     0.13436   0.63649   0.05864   0.00000  Uiso   1.00
C151   C     0.08038   0.53011   0.95355   0.00000  Uiso   1.00
C152   C     0.07005   0.78787   0.20325   0.00000  Uiso   1.00
C153   C     0.09367   0.79429   0.27832   0.00000  Uiso   1.00
C154   C     0.05343   0.78733   0.32734   0.00000  Uiso   1.00
C155   C     0.08459   0.79506   0.39319   0.00000  Uiso   1.00
C156   C     0.11693   0.85732   0.20424   0.00000  Uiso   1.00
C157   C     0.09625   0.90336   0.19096   0.00000  Uiso   1.00
C158   C     0.14699   0.96415   0.19444   0.00000  Uiso   1.00
C159   C     0.08648   0.72989   0.14759   0.00000  Uiso   1.00
C160   C     0.04022   0.66879   0.08668   0.00000  Uiso   1.00
C161   C     0.06533   0.62229   0.04244   0.00000  Uiso   1.00
H162   H     0.25057   0.82500   0.24560   0.00000  Uiso   1.00
H163   H     0.24713   0.82718   0.37277   0.00000  Uiso   1.00
H164   H     0.28994   0.94317   0.23640   0.00000  Uiso   1.00
H165   H     0.23391   0.70864   0.13213   0.00000  Uiso   1.00
H166   H     0.21294   0.82337   0.50664   0.00000  Uiso   1.00
H167   H     0.30320   0.06794   0.21908   0.00000  Uiso   1.00
H168   H     0.18506   0.57338   0.99921   0.00000  Uiso   1.00
H169   H     0.01640   0.77684   0.19066   0.00000  Uiso   1.00
H170   H     0.00011   0.77637   0.31481   0.00000  Uiso   1.00
H171   H     0.04292   0.89237   0.17845   0.00000  Uiso   1.00
H172   H     0.98689   0.65784   0.07418   0.00000  Uiso   1.00
H173   H     0.01245   0.78213   0.45961   0.00000  Uiso   1.00
H174   H     0.10272   0.02671   0.17204   0.00000  Uiso   1.00
H175   H     0.98457   0.53215   0.95217   0.00000  Uiso   1.00
O176   O     0.10621   0.80334   0.56580   0.00000  Uiso   1.00
O177   O     0.22464   0.12420   0.18851   0.00000  Uiso   1.00
O178   O     0.06963   0.47535   0.90005   0.00000  Uiso   1.00
N179   N     0.16799   0.81371   0.47853   0.00000  Uiso   1.00
N180   N     0.25238   0.04238   0.20968   0.00000  Uiso   1.00
N181   N     0.14193   0.58002   0.00411   0.00000  Uiso   1.00
N182   N     0.06010   0.79152   0.45322   0.00000  Uiso   1.00
N183   N     0.14450   0.02020   0.18437   0.00000  Uiso   1.00
N184   N     0.03404   0.55783   0.97880   0.00000  Uiso   1.00
C185   C     0.78247   0.14921   0.19854   0.00000  Uiso   1.00
C186   C     0.76754   0.18716   0.15731   0.00000  Uiso   1.00
C187   C     0.77960   0.25846   0.18842   0.00000  Uiso   1.00
C188   C     0.76243   0.28303   0.14138   0.00000  Uiso   1.00
C189   C     0.74356   0.34883   0.08883   0.00000  Uiso   1.00
C190   C     0.82903   0.11709   0.16046   0.00000  Uiso   1.00
C191   C     0.89279   0.12948   0.19421   0.00000  Uiso   1.00
C192   C     0.92737   0.09506   0.14982   0.00000  Uiso   1.00
C193   C     0.00396   0.05204   0.10216   0.00000  Uiso   1.00
C194   C     0.71525   0.08638   0.18269   0.00000  Uiso   1.00
C195   C     0.68335   0.07294   0.23514   0.00000  Uiso   1.00
C196   C     0.62215   0.01265   0.20947   0.00000  Uiso   1.00
C197   C     0.52207   0.92195   0.19634   0.00000  Uiso   1.00
C198   C     0.73052   0.06603   0.05968   0.00000  Uiso   1.00
C199   C     0.73932   0.14198   0.08189   0.00000  Uiso   1.00
C200   C     0.72212   0.16644   0.03479   0.00000  Uiso   1.00
C201   C     0.73415   0.23777   0.06582   0.00000  Uiso   1.00
C202   C     0.80082   0.07192   0.08504   0.00000  Uiso   1.00
C203   C     0.83531   0.03746   0.04058   0.00000  Uiso   1.00
C204   C     0.89911   0.04980   0.07426   0.00000  Uiso   1.00
C205   C     0.68703   0.04121   0.10727   0.00000  Uiso   1.00
C206   C     0.62587   0.98092   0.08151   0.00000  Uiso   1.00
C207   C     0.59388   0.96739   0.13391   0.00000  Uiso   1.00
H208   H     0.80444   0.18438   0.25726   0.00000  Uiso   1.00
H209   H     0.80144   0.29341   0.24679   0.00000  Uiso   1.00
H210   H     0.91461   0.16444   0.25258   0.00000  Uiso   1.00
H211   H     0.70520   0.10791   0.29350   0.00000  Uiso   1.00
H212   H     0.78570   0.39437   0.20192   0.00000  Uiso   1.00
H213   H     0.02430   0.12242   0.21413   0.00000  Uiso   1.00
H214   H     0.58273   0.00321   0.30043   0.00000  Uiso   1.00
H215   H     0.70855   0.03086   0.00096   0.00000  Uiso   1.00
H216   H     0.70029   0.13147   0.97642   0.00000  Uiso   1.00
H217   H     0.81346   0.00250   0.98222   0.00000  Uiso   1.00
H218   H     0.60405   0.94597   0.02314   0.00000  Uiso   1.00
H219   H     0.70360   0.26293   0.98248   0.00000  Uiso   1.00
H220   H     0.94221   0.99097   0.99470   0.00000  Uiso   1.00
H221   H     0.50063   0.87177   0.08099   0.00000  Uiso   1.00
O222   O     0.74096   0.39761   0.08068   0.00000  Uiso   1.00
O223   O     0.05400   0.04081   0.09671   0.00000  Uiso   1.00
O224   O     0.47466   0.88441   0.20993   0.00000  Uiso   1.00
N225   N     0.76749   0.34963   0.15364   0.00000  Uiso   1.00
N226   N     0.99058   0.09538   0.16506   0.00000  Uiso   1.00
N227   N     0.57776   0.98391   0.24574   0.00000  Uiso   1.00
N228   N     0.72332   0.27890   0.03556   0.00000  Uiso   1.00
N229   N     0.94641   0.02465   0.04698   0.00000  Uiso   1.00
N230   N     0.53358   0.91319   0.12766   0.00000  Uiso   1.00
C231   C     0.21495   0.22183   0.89156   0.00000  Uiso   1.00
C232   C     0.29134   0.24396   0.90019   0.00000  Uiso   1.00
C233   C     0.33741   0.30416   0.89816   0.00000  Uiso   1.00
C234   C     0.40513   0.31499   0.90719   0.00000  Uiso   1.00
C235   C     0.52057   0.35662   0.91902   0.00000  Uiso   1.00
C236   C     0.19926   0.21469   0.96027   0.00000  Uiso   1.00
C237   C     0.16791   0.25028   0.00875   0.00000  Uiso   1.00
C238   C     0.15810   0.23647   0.06835   0.00000  Uiso   1.00
C239   C     0.13055   0.23262   0.17342   0.00000  Uiso   1.00
C240   C     0.18052   0.14668   0.82766   0.00000  Uiso   1.00
C241   C     0.13339   0.12507   0.76465   0.00000  Uiso   1.00
C242   C     0.10779   0.05399   0.71261   0.00000  Uiso   1.00
C243   C     0.05114   0.94454   0.61179   0.00000  Uiso   1.00
C244   C     0.25327   0.13402   0.91119   0.00000  Uiso   1.00
C245   C     0.31215   0.19626   0.91086   0.00000  Uiso   1.00
C246   C     0.37981   0.20700   0.91989   0.00000  Uiso   1.00
C247   C     0.42598   0.26721   0.91787   0.00000  Uiso   1.00
C248   C     0.22007   0.16700   0.97094   0.00000  Uiso   1.00
C249   C     0.21031   0.15313   0.03047   0.00000  Uiso   1.00
C250   C     0.17895   0.18869   0.07903   0.00000  Uiso   1.00
C251   C     0.20133   0.09898   0.83833   0.00000  Uiso   1.00
C252   C     0.17579   0.02792   0.78637   0.00000  Uiso   1.00
C253   C     0.12864   0.00621   0.72329   0.00000  Uiso   1.00
H254   H     0.19874   0.25896   0.88326   0.00000  Uiso   1.00
H255   H     0.32128   0.34106   0.88992   0.00000  Uiso   1.00
H256   H     0.15180   0.28718   0.00048   0.00000  Uiso   1.00
H257   H     0.11729   0.16199   0.75642   0.00000  Uiso   1.00
H258   H     0.46633   0.41106   0.90203   0.00000  Uiso   1.00
H259   H     0.10894   0.29743   0.13515   0.00000  Uiso   1.00
H260   H     0.03617   0.03345   0.62050   0.00000  Uiso   1.00
H261   H     0.26948   0.09689   0.91949   0.00000  Uiso   1.00
H262   H     0.39590   0.17009   0.92814   0.00000  Uiso   1.00
H263   H     0.22642   0.11621   0.03871   0.00000  Uiso   1.00
H264   H     0.19191   0.99102   0.79465   0.00000  Uiso   1.00
H265   H     0.52689   0.27229   0.93306   0.00000  Uiso   1.00
H266   H     0.16950   0.15867   0.16618   0.00000  Uiso   1.00
H267   H     0.09674   0.89468   0.65152   0.00000  Uiso   1.00
O268   O     0.57850   0.39276   0.92260   0.00000  Uiso   1.00
O269   O     0.10961   0.24368   0.22844   0.00000  Uiso   1.00
O270   O     0.01415   0.89735   0.55322   0.00000  Uiso   1.00
N271   N     0.46323   0.36834   0.90813   0.00000  Uiso   1.00
N272   N     0.12910   0.26212   0.12609   0.00000  Uiso   1.00
N273   N     0.06106   0.01532   0.64494   0.00000  Uiso   1.00
N274   N     0.49582   0.29367   0.92483   0.00000  Uiso   1.00
N275   N     0.16169   0.18745   0.14278   0.00000  Uiso   1.00
N276   N     0.09365   0.94065   0.66164   0.00000  Uiso   1.00
C277   C     0.26570   0.30539   0.66772   0.00000  Uiso   1.00
C278   C     0.29532   0.25524   0.67205   0.00000  Uiso   1.00
C279   C     0.26070   0.18169   0.64151   0.00000  Uiso   1.00
C280   C     0.29679   0.14535   0.65155   0.00000  Uiso   1.00
C281   C     0.33240   0.06200   0.65228   0.00000  Uiso   1.00
C282   C     0.31185   0.34718   0.63350   0.00000  Uiso   1.00
C283   C     0.29113   0.35094   0.57056   0.00000  Uiso   1.00
C284   C     0.34114   0.39201   0.54816   0.00000  Uiso   1.00
C285   C     0.40241   0.45145   0.48907   0.00000  Uiso   1.00
C286   C     0.27606   0.35915   0.74704   0.00000  Uiso   1.00
C287   C     0.22525   0.37299   0.77956   0.00000  Uiso   1.00
C288   C     0.24513   0.42415   0.85274   0.00000  Uiso   1.00
C289   C     0.25083   0.50217   0.96994   0.00000  Uiso   1.00
C290   C     0.39138   0.37164   0.73986   0.00000  Uiso   1.00
C291   C     0.36358   0.29123   0.71123   0.00000  Uiso   1.00
C292   C     0.39974   0.25499   0.72133   0.00000  Uiso   1.00
C293   C     0.36517   0.18140   0.69081   0.00000  Uiso   1.00
C294   C     0.38011   0.38317   0.67268   0.00000  Uiso   1.00
C295   C     0.43017   0.42425   0.65037   0.00000  Uiso   1.00
C296   C     0.40952   0.42806   0.58741   0.00000  Uiso   1.00
C297   C     0.34432   0.39514   0.78623   0.00000  Uiso   1.00
C298   C     0.36429   0.44629   0.85938   0.00000  Uiso   1.00
C299   C     0.31352   0.46020   0.89200   0.00000  Uiso   1.00
H300   H     0.21256   0.27737   0.63721   0.00000  Uiso   1.00
H301   H     0.20787   0.15386   0.61118   0.00000  Uiso   1.00
H302   H     0.23830   0.32309   0.54025   0.00000  Uiso   1.00
H303   H     0.17243   0.34513   0.74921   0.00000  Uiso   1.00
H304   H     0.23278   0.03278   0.59958   0.00000  Uiso   1.00
H305   H     0.29693   0.38965   0.45003   0.00000  Uiso   1.00
H306   H     0.15804   0.43612   0.89068   0.00000  Uiso   1.00
H307   H     0.44452   0.39966   0.77037   0.00000  Uiso   1.00
H308   H     0.45256   0.28285   0.75165   0.00000  Uiso   1.00
H309   H     0.48298   0.45209   0.68072   0.00000  Uiso   1.00
H310   H     0.41712   0.47413   0.88968   0.00000  Uiso   1.00
H311   H     0.43138   0.13748   0.71359   0.00000  Uiso   1.00
H312   H     0.49553   0.49435   0.56404   0.00000  Uiso   1.00
H313   H     0.35664   0.54082   0.00469   0.00000  Uiso   1.00
O314   O     0.33319   0.00608   0.64185   0.00000  Uiso   1.00
O315   O     0.41735   0.47428   0.44565   0.00000  Uiso   1.00
O316   O     0.23512   0.53525   0.02377   0.00000  Uiso   1.00
N317   N     0.27842   0.07345   0.62900   0.00000  Uiso   1.00
N318   N     0.33839   0.40709   0.48916   0.00000  Uiso   1.00
N319   N     0.20854   0.45056   0.90113   0.00000  Uiso   1.00
N320   N     0.38528   0.12979   0.69035   0.00000  Uiso   1.00
N321   N     0.44526   0.46343   0.55051   0.00000  Uiso   1.00
N322   N     0.31540   0.50689   0.96248   0.00000  Uiso   1.00
C323   C     0.64741   0.22817   0.32761   0.00000  Uiso   1.00
C324   C     0.62814   0.24214   0.26436   0.00000  Uiso   1.00
C325   C     0.60527   0.19277   0.19042   0.00000  Uiso   1.00
C326   C     0.59028   0.21597   0.14107   0.00000  Uiso   1.00
C327   C     0.55916   0.22699   0.03924   0.00000  Uiso   1.00
C328   C     0.60336   0.24761   0.38064   0.00000  Uiso   1.00
C329   C     0.55965   0.20284   0.40446   0.00000  Uiso   1.00
C330   C     0.52381   0.23066   0.45299   0.00000  Uiso   1.00
C331   C     0.45426   0.25019   0.53173   0.00000  Uiso   1.00
C332   C     0.72037   0.28318   0.36788   0.00000  Uiso   1.00
C333   C     0.77505   0.26833   0.38100   0.00000  Uiso   1.00
C334   C     0.83772   0.32610   0.41882   0.00000  Uiso   1.00
C335   C     0.94984   0.40086   0.47775   0.00000  Uiso   1.00
C336   C     0.66147   0.35719   0.37146   0.00000  Uiso   1.00
C337   C     0.63578   0.31221   0.28819   0.00000  Uiso   1.00
C338   C     0.62082   0.33551   0.23893   0.00000  Uiso   1.00
C339   C     0.59793   0.28618   0.16493   0.00000  Uiso   1.00
C340   C     0.61099   0.31768   0.40446   0.00000  Uiso   1.00
C341   C     0.57521   0.34558   0.45297   0.00000  Uiso   1.00
C342   C     0.53146   0.30086   0.47686   0.00000  Uiso   1.00
C343   C     0.72801   0.35326   0.39170   0.00000  Uiso   1.00
C344   C     0.79060   0.41107   0.42951   0.00000  Uiso   1.00
C345   C     0.84537   0.39630   0.44268   0.00000  Uiso   1.00
H346   H     0.64146   0.17362   0.30907   0.00000  Uiso   1.00
H347   H     0.59936   0.13854   0.17201   0.00000  Uiso   1.00
H348   H     0.55376   0.14862   0.38602   0.00000  Uiso   1.00
H349   H     0.76912   0.21409   0.36256   0.00000  Uiso   1.00
H350   H     0.55602   0.13054   0.03055   0.00000  Uiso   1.00
H351   H     0.45989   0.15180   0.48183   0.00000  Uiso   1.00
H352   H     0.91402   0.28987   0.43236   0.00000  Uiso   1.00
H353   H     0.66742   0.41175   0.39001   0.00000  Uiso   1.00
H354   H     0.62674   0.38974   0.25738   0.00000  Uiso   1.00
H355   H     0.58114   0.39981   0.47140   0.00000  Uiso   1.00
H356   H     0.79649   0.46529   0.44794   0.00000  Uiso   1.00
H357   H     0.57824   0.33442   0.09985   0.00000  Uiso   1.00
H358   H     0.48211   0.35568   0.55113   0.00000  Uiso   1.00
H359   H     0.93624   0.49375   0.50166   0.00000  Uiso   1.00
O360   O     0.53988   0.21370   0.97650   0.00000  Uiso   1.00
O361   O     0.41377   0.24159   0.56856   0.00000  Uiso   1.00
O362   O     0.00957   0.42273   0.50366   0.00000  Uiso   1.00
N363   N     0.56685   0.18155   0.06506   0.00000  Uiso   1.00
N364   N     0.47696   0.20142   0.48697   0.00000  Uiso   1.00
N365   N     0.90153   0.33051   0.44074   0.00000  Uiso   1.00
N366   N     0.57880   0.29126   0.10235   0.00000  Uiso   1.00
N367   N     0.48892   0.31113   0.52426   0.00000  Uiso   1.00
N368   N     0.91348   0.44021   0.47803   0.00000  Uiso   1.00
C369   C     0.25697   0.63220   0.24462   0.00000  Uiso   1.00
C370   C     0.19108   0.62242   0.27035   0.00000  Uiso   1.00
C371   C     0.12786   0.60060   0.22716   0.00000  Uiso   1.00
C372   C     0.07385   0.59490   0.26097   0.00000  Uiso   1.00
C373   C     0.97017   0.57731   0.28961   0.00000  Uiso   1.00
C374   C     0.28348   0.58505   0.26156   0.00000  Uiso   1.00
C375   C     0.29795   0.53181   0.21098   0.00000  Uiso   1.00
C376   C     0.32174   0.49466   0.23740   0.00000  Uiso   1.00
C377   C     0.36155   0.41909   0.25241   0.00000  Uiso   1.00
C378   C     0.30766   0.70879   0.29573   0.00000  Uiso   1.00
C379   C     0.34248   0.75959   0.27387   0.00000  Uiso   1.00
C380   C     0.38664   0.82662   0.32906   0.00000  Uiso   1.00
C381   C     0.46400   0.94318   0.39710   0.00000  Uiso   1.00
C382   C     0.27348   0.66090   0.38147   0.00000  Uiso   1.00
C383   C     0.20005   0.63801   0.34468   0.00000  Uiso   1.00
C384   C     0.14612   0.63235   0.37857   0.00000  Uiso   1.00
C385   C     0.08283   0.61052   0.33544   0.00000  Uiso   1.00
C386   C     0.29244   0.60063   0.33589   0.00000  Uiso   1.00
C387   C     0.31622   0.56356   0.36240   0.00000  Uiso   1.00
C388   C     0.33072   0.51028   0.31187   0.00000  Uiso   1.00
C389   C     0.31662   0.72438   0.37006   0.00000  Uiso   1.00
C390   C     0.36074   0.79134   0.42529   0.00000  Uiso   1.00
C391   C     0.39562   0.84224   0.40352   0.00000  Uiso   1.00
H392   H     0.24999   0.62006   0.18675   0.00000  Uiso   1.00
H393   H     0.12094   0.58853   0.16963   0.00000  Uiso   1.00
H394   H     0.29101   0.51977   0.15347   0.00000  Uiso   1.00
H395   H     0.33553   0.74751   0.21634   0.00000  Uiso   1.00
H396   H     0.98181   0.56042   0.18343   0.00000  Uiso   1.00
H397   H     0.34045   0.41544   0.14935   0.00000  Uiso   1.00
H398   H     0.43432   0.89569   0.28194   0.00000  Uiso   1.00
H399   H     0.28046   0.67303   0.43935   0.00000  Uiso   1.00
H400   H     0.15308   0.64441   0.43610   0.00000  Uiso   1.00
H401   H     0.32315   0.57564   0.41992   0.00000  Uiso   1.00
H402   H     0.36767   0.80339   0.48280   0.00000  Uiso   1.00
H403   H     0.00789   0.60577   0.39970   0.00000  Uiso   1.00
H404   H     0.36654   0.46079   0.36561   0.00000  Uiso   1.00
H405   H     0.46041   0.94104   0.49821   0.00000  Uiso   1.00
O406   O     0.91050   0.56329   0.28487   0.00000  Uiso   1.00
O407   O     0.38103   0.37309   0.24014   0.00000  Uiso   1.00
O408   O     0.50419   0.00316   0.41410   0.00000  Uiso   1.00
N409   N     0.00543   0.57504   0.23478   0.00000  Uiso   1.00
N410   N     0.34073   0.43948   0.20291   0.00000  Uiso   1.00
N411   N     0.42851   0.88847   0.32687   0.00000  Uiso   1.00
N412   N     0.01947   0.59944   0.35116   0.00000  Uiso   1.00
N413   N     0.35476   0.46388   0.31928   0.00000  Uiso   1.00
N414   N     0.44254   0.91287   0.44325   0.00000  Uiso   1.00
C415   C     0.80308   0.18604   0.76699   0.00000  Uiso   1.00
C416   C     0.83742   0.19154   0.70551   0.00000  Uiso   1.00
C417   C     0.80620   0.18380   0.63972   0.00000  Uiso   1.00
C418   C     0.84637   0.19074   0.59061   0.00000  Uiso   1.00
C419   C     0.88920   0.19709   0.49268   0.00000  Uiso   1.00
C420   C     0.81416   0.12851   0.77960   0.00000  Uiso   1.00
C421   C     0.76338   0.06778   0.77610   0.00000  Uiso   1.00
C422   C     0.78398   0.02166   0.78936   0.00000  Uiso   1.00
C423   C     0.79070   0.93018   0.80651   0.00000  Uiso   1.00
C424   C     0.84460   0.25594   0.83624   0.00000  Uiso   1.00
C425   C     0.81942   0.30235   0.88040   0.00000  Uiso   1.00
C426   C     0.86564   0.36351   0.94136   0.00000  Uiso   1.00
C427   C     0.91962   0.46989   0.04645   0.00000  Uiso   1.00
C428   C     0.92995   0.21213   0.79675   0.00000  Uiso   1.00
C429   C     0.90633   0.20571   0.72168   0.00000  Uiso   1.00
C430   C     0.94657   0.21267   0.67266   0.00000  Uiso   1.00
C431   C     0.91541   0.20494   0.60681   0.00000  Uiso   1.00
C432   C     0.88307   0.14268   0.79576   0.00000  Uiso   1.00
C433   C     0.90375   0.09664   0.80904   0.00000  Uiso   1.00
C434   C     0.85301   0.03585   0.80556   0.00000  Uiso   1.00
C435   C     0.91352   0.27011   0.85241   0.00000  Uiso   1.00
C436   C     0.95978   0.33121   0.91332   0.00000  Uiso   1.00
C437   C     0.93467   0.37771   0.95756   0.00000  Uiso   1.00
H438   H     0.74943   0.17500   0.75440   0.00000  Uiso   1.00
H439   H     0.75287   0.17282   0.62723   0.00000  Uiso   1.00
H440   H     0.71006   0.05683   0.76360   0.00000  Uiso   1.00
H441   H     0.76609   0.29136   0.86787   0.00000  Uiso   1.00
H442   H     0.78706   0.17663   0.49336   0.00000  Uiso   1.00
H443   H     0.69680   0.93206   0.78092   0.00000  Uiso   1.00
H444   H     0.81494   0.42662   0.00079   0.00000  Uiso   1.00
H445   H     0.98360   0.22316   0.80934   0.00000  Uiso   1.00
H446   H     0.99989   0.22363   0.68519   0.00000  Uiso   1.00
H447   H     0.95708   0.10763   0.82155   0.00000  Uiso   1.00
H448   H     0.01311   0.34216   0.92582   0.00000  Uiso   1.00
H449   H     0.98755   0.21787   0.54039   0.00000  Uiso   1.00
H450   H     0.89728   0.97329   0.82796   0.00000  Uiso   1.00
H451   H     0.01543   0.46785   0.04783   0.00000  Uiso   1.00
O452   O     0.89379   0.19666   0.43420   0.00000  Uiso   1.00
O453   O     0.77536   0.87580   0.81149   0.00000  Uiso   1.00
O454   O     0.93037   0.52465   0.09995   0.00000  Uiso   1.00
N455   N     0.83201   0.18629   0.52147   0.00000  Uiso   1.00
N456   N     0.74762   0.95762   0.79032   0.00000  Uiso   1.00
N457   N     0.85807   0.41998   0.99589   0.00000  Uiso   1.00
N458   N     0.93990   0.20848   0.54678   0.00000  Uiso   1.00
N459   N     0.85550   0.97980   0.81563   0.00000  Uiso   1.00
N460   N     0.96596   0.44217   0.02120   0.00000  Uiso   1.00
C461   C     0.21753   0.85079   0.80146   0.00000  Uiso   1.00
C462   C     0.23246   0.81284   0.84269   0.00000  Uiso   1.00
C463   C     0.22040   0.74154   0.81158   0.00000  Uiso   1.00
C464   C     0.23757   0.71697   0.85862   0.00000  Uiso   1.00
C465   C     0.25644   0.65117   0.91117   0.00000  Uiso   1.00
C466   C     0.17097   0.88291   0.83954   0.00000  Uiso   1.00
C467   C     0.10721   0.87052   0.80579   0.00000  Uiso   1.00
C468   C     0.07263   0.90494   0.85018   0.00000  Uiso   1.00
C469   C     0.99604   0.94796   0.89784   0.00000  Uiso   1.00
C470   C     0.28475   0.91362   0.81731   0.00000  Uiso   1.00
C471   C     0.31665   0.92706   0.76486   0.00000  Uiso   1.00
C472   C     0.37785   0.98735   0.79053   0.00000  Uiso   1.00
C473   C     0.47793   0.07805   0.80366   0.00000  Uiso   1.00
C474   C     0.26948   0.93397   0.94032   0.00000  Uiso   1.00
C475   C     0.26068   0.85802   0.91811   0.00000  Uiso   1.00
C476   C     0.27788   0.83356   0.96521   0.00000  Uiso   1.00
C477   C     0.26585   0.76223   0.93418   0.00000  Uiso   1.00
C478   C     0.19918   0.92808   0.91496   0.00000  Uiso   1.00
C479   C     0.16469   0.96254   0.95942   0.00000  Uiso   1.00
C480   C     0.10089   0.95020   0.92574   0.00000  Uiso   1.00
C481   C     0.31297   0.95879   0.89273   0.00000  Uiso   1.00
C482   C     0.37413   0.01908   0.91849   0.00000  Uiso   1.00
C483   C     0.40612   0.03261   0.86609   0.00000  Uiso   1.00
H484   H     0.19556   0.81562   0.74274   0.00000  Uiso   1.00
H485   H     0.19856   0.70659   0.75321   0.00000  Uiso   1.00
H486   H     0.08539   0.83556   0.74742   0.00000  Uiso   1.00
H487   H     0.29480   0.89209   0.70650   0.00000  Uiso   1.00
H488   H     0.21430   0.60563   0.79808   0.00000  Uiso   1.00
H489   H     0.97570   0.87758   0.78587   0.00000  Uiso   1.00
H490   H     0.41727   0.99679   0.69957   0.00000  Uiso   1.00
H491   H     0.29145   0.96914   0.99904   0.00000  Uiso   1.00
H492   H     0.29971   0.86853   0.02358   0.00000  Uiso   1.00
H493   H     0.18654   0.99750   0.01778   0.00000  Uiso   1.00
H494   H     0.39595   0.05403   0.97686   0.00000  Uiso   1.00
H495   H     0.29640   0.73707   0.01752   0.00000  Uiso   1.00
H496   H     0.05779   0.00903   0.00530   0.00000  Uiso   1.00
H497   H     0.49937   0.12823   0.91901   0.00000  Uiso   1.00
O498   O     0.25904   0.60239   0.91932   0.00000  Uiso   1.00
O499   O     0.94600   0.95919   0.90329   0.00000  Uiso   1.00
O500   O     0.52534   0.11559   0.79007   0.00000  Uiso   1.00
N501   N     0.23251   0.65037   0.84636   0.00000  Uiso   1.00
N502   N     0.00942   0.90462   0.83494   0.00000  Uiso   1.00
N503   N     0.42224   0.01609   0.75426   0.00000  Uiso   1.00
N504   N     0.27668   0.72110   0.96444   0.00000  Uiso   1.00
N505   N     0.05359   0.97535   0.95302   0.00000  Uiso   1.00
N506   N     0.46642   0.08681   0.87234   0.00000  Uiso   1.00
C507   C     0.78505   0.77817   0.10844   0.00000  Uiso   1.00
C508   C     0.70866   0.75604   0.09981   0.00000  Uiso   1.00
C509   C     0.66259   0.69584   0.10184   0.00000  Uiso   1.00
C510   C     0.59487   0.68501   0.09281   0.00000  Uiso   1.00
C511   C     0.47943   0.64338   0.08098   0.00000  Uiso   1.00
C512   C     0.80074   0.78531   0.03973   0.00000  Uiso   1.00
C513   C     0.83209   0.74972   0.99125   0.00000  Uiso   1.00
C514   C     0.84190   0.76353   0.93165   0.00000  Uiso   1.00
C515   C     0.86945   0.76738   0.82658   0.00000  Uiso   1.00
C516   C     0.81948   0.85332   0.17234   0.00000  Uiso   1.00
C517   C     0.86661   0.87493   0.23535   0.00000  Uiso   1.00
C518   C     0.89221   0.94601   0.28739   0.00000  Uiso   1.00
C519   C     0.94886   0.05546   0.38821   0.00000  Uiso   1.00
C520   C     0.74673   0.86598   0.08881   0.00000  Uiso   1.00
C521   C     0.68785   0.80374   0.08914   0.00000  Uiso   1.00
C522   C     0.62019   0.79300   0.08011   0.00000  Uiso   1.00
C523   C     0.57402   0.73279   0.08213   0.00000  Uiso   1.00
C524   C     0.77993   0.83300   0.02906   0.00000  Uiso   1.00
C525   C     0.78969   0.84687   0.96953   0.00000  Uiso   1.00
C526   C     0.82105   0.81131   0.92097   0.00000  Uiso   1.00
C527   C     0.79867   0.90102   0.16167   0.00000  Uiso   1.00
C528   C     0.82421   0.97208   0.21363   0.00000  Uiso   1.00
C529   C     0.87136   0.99379   0.27671   0.00000  Uiso   1.00
H530   H     0.80126   0.74104   0.11674   0.00000  Uiso   1.00
H531   H     0.67872   0.65894   0.11008   0.00000  Uiso   1.00
H532   H     0.84820   0.71282   0.99952   0.00000  Uiso   1.00
H533   H     0.88271   0.83801   0.24358   0.00000  Uiso   1.00
H534   H     0.53367   0.58894   0.09797   0.00000  Uiso   1.00
H535   H     0.89106   0.70257   0.86485   0.00000  Uiso   1.00
H536   H     0.96383   0.96655   0.37950   0.00000  Uiso   1.00
H537   H     0.73052   0.90311   0.08051   0.00000  Uiso   1.00
H538   H     0.60410   0.82991   0.07186   0.00000  Uiso   1.00
H539   H     0.77358   0.88379   0.96129   0.00000  Uiso   1.00
H540   H     0.80809   0.00898   0.20535   0.00000  Uiso   1.00
H541   H     0.47311   0.72771   0.06694   0.00000  Uiso   1.00
H542   H     0.83050   0.84133   0.83382   0.00000  Uiso   1.00
H543   H     0.90326   0.10532   0.34848   0.00000  Uiso   1.00
O544   O     0.42150   0.60724   0.07740   0.00000  Uiso   1.00
O545   O     0.89039   0.75632   0.77156   0.00000  Uiso   1.00
O546   O     0.98585   0.10265   0.44678   0.00000  Uiso   1.00
N547   N     0.53677   0.63166   0.09187   0.00000  Uiso   1.00
N548   N     0.87090   0.73788   0.87391   0.00000  Uiso   1.00
N549   N     0.93894   0.98468   0.35506   0.00000  Uiso   1.00
N550   N     0.50418   0.70633   0.07517   0.00000  Uiso   1.00
N551   N     0.83831   0.81255   0.85722   0.00000  Uiso   1.00
N552   N     0.90635   0.05935   0.33836   0.00000  Uiso   1.00
