data_job_05861
_audit_creation_date              2018-12-19
_audit_creation_method            'Materials Studio'
_symmetry_space_group_name_H-M    'P1'
_symmetry_Int_Tables_number       1
_symmetry_cell_setting            triclinic
loop_
_symmetry_equiv_pos_as_xyz
  x,y,z
_cell_length_a                    12.3912
_cell_length_b                    12.3912
_cell_length_c                    35.0638
_cell_angle_alpha                 90.0000
_cell_angle_beta                  90.0000
_cell_angle_gamma                 120.0000
loop_
_atom_site_label
_atom_site_type_symbol
_atom_site_fract_x
_atom_site_fract_y
_atom_site_fract_z
_atom_site_U_iso_or_equiv
_atom_site_adp_type
_atom_site_occupancy
C1     C     0.41359   0.27271   0.06363   0.00000  Uiso   1.00
C2     C     0.50176   0.29270   0.09666   0.00000  Uiso   1.00
C3     C     0.63074   0.36463   0.09552   0.00000  Uiso   1.00
C4     C     0.69468   0.37111   0.12874   0.00000  Uiso   1.00
C5     C     0.84116   0.41173   0.17498   0.00000  Uiso   1.00
C6     C     0.33611   0.13208   0.05790   0.00000  Uiso   1.00
C7     C     0.32581   0.06897   0.02418   0.00000  Uiso   1.00
C8     C     0.25030   0.94024   0.02478   0.00000  Uiso   1.00
C9     C     0.13953   0.73150   0.01085   0.00000  Uiso   1.00
C10    C     0.32354   0.31356   0.07814   0.00000  Uiso   1.00
C11    C     0.30264   0.40302   0.06143   0.00000  Uiso   1.00
C12    C     0.21652   0.42707   0.07907   0.00000  Uiso   1.00
C13    C     0.08624   0.50011   0.09655   0.00000  Uiso   1.00
C14    C     0.29778   0.15632   0.12465   0.00000  Uiso   1.00
C15    C     0.43885   0.22948   0.12980   0.00000  Uiso   1.00
C16    C     0.50262   0.23586   0.16304   0.00000  Uiso   1.00
C17    C     0.63167   0.30779   0.16195   0.00000  Uiso   1.00
C18    C     0.27321   0.06886   0.09105   0.00000  Uiso   1.00
C19    C     0.19769   0.94020   0.09170   0.00000  Uiso   1.00
C20    C     0.18728   0.87691   0.05799   0.00000  Uiso   1.00
C21    C     0.26064   0.25035   0.11129   0.00000  Uiso   1.00
C22    C     0.17452   0.27426   0.12895   0.00000  Uiso   1.00
C23    C     0.15350   0.36373   0.11227   0.00000  Uiso   1.00
H24    H     0.46255   0.32191   0.03782   0.00000  Uiso   1.00
H25    H     0.67938   0.41353   0.06986   0.00000  Uiso   1.00
H26    H     0.37449   0.11791   0.99854   0.00000  Uiso   1.00
H27    H     0.35133   0.45192   0.03578   0.00000  Uiso   1.00
H28    H     0.89204   0.48718   0.12000   0.00000  Uiso   1.00
H29    H     0.24912   0.86387   0.96960   0.00000  Uiso   1.00
H30    H     0.20029   0.56818   0.04814   0.00000  Uiso   1.00
H31    H     0.24881   0.10710   0.15046   0.00000  Uiso   1.00
H32    H     0.45391   0.18693   0.18868   0.00000  Uiso   1.00
H33    H     0.14902   0.89131   0.11735   0.00000  Uiso   1.00
H34    H     0.12586   0.22532   0.15460   0.00000  Uiso   1.00
H35    H     0.70905   0.30326   0.21643   0.00000  Uiso   1.00
H36    H     0.06612   0.67995   0.06603   0.00000  Uiso   1.00
H37    H     0.01729   0.38426   0.14457   0.00000  Uiso   1.00
O38    O     0.93933   0.45158   0.19133   0.00000  Uiso   1.00
O39    O     0.09582   0.63382   0.99401   0.00000  Uiso   1.00
O40    O     0.03176   0.55787   0.09704   0.00000  Uiso   1.00
N41    N     0.82082   0.43296   0.13745   0.00000  Uiso   1.00
N42    N     0.21975   0.85020   0.99684   0.00000  Uiso   1.00
N43    N     0.17407   0.50865   0.07026   0.00000  Uiso   1.00
N44    N     0.72236   0.33400   0.18934   0.00000  Uiso   1.00
N45    N     0.12128   0.75123   0.04873   0.00000  Uiso   1.00
N46    N     0.07560   0.40968   0.12215   0.00000  Uiso   1.00
C47    C     0.72729   0.14088   0.73030   0.00000  Uiso   1.00
C48    C     0.70730   0.20905   0.76332   0.00000  Uiso   1.00
C49    C     0.63537   0.26611   0.76219   0.00000  Uiso   1.00
C50    C     0.62889   0.32357   0.79541   0.00000  Uiso   1.00
C51    C     0.58827   0.42943   0.84165   0.00000  Uiso   1.00
C52    C     0.86792   0.20403   0.72457   0.00000  Uiso   1.00
C53    C     0.93103   0.25684   0.69085   0.00000  Uiso   1.00
C54    C     0.05976   0.31006   0.69145   0.00000  Uiso   1.00
C55    C     0.26850   0.40803   0.67752   0.00000  Uiso   1.00
C56    C     0.68644   0.00997   0.74481   0.00000  Uiso   1.00
C57    C     0.59698   0.89962   0.72810   0.00000  Uiso   1.00
C58    C     0.57293   0.78945   0.74573   0.00000  Uiso   1.00
C59    C     0.49989   0.58613   0.76322   0.00000  Uiso   1.00
C60    C     0.84368   0.14146   0.79132   0.00000  Uiso   1.00
C61    C     0.77052   0.20937   0.79647   0.00000  Uiso   1.00
C62    C     0.76414   0.26675   0.82970   0.00000  Uiso   1.00
C63    C     0.69221   0.32388   0.82862   0.00000  Uiso   1.00
C64    C     0.93114   0.20435   0.75771   0.00000  Uiso   1.00
C65    C     0.05980   0.25749   0.75836   0.00000  Uiso   1.00
C66    C     0.12309   0.31038   0.72465   0.00000  Uiso   1.00
C67    C     0.74965   0.01029   0.77795   0.00000  Uiso   1.00
C68    C     0.72574   0.90027   0.79561   0.00000  Uiso   1.00
C69    C     0.63627   0.78977   0.77894   0.00000  Uiso   1.00
H70    H     0.67809   0.14064   0.70449   0.00000  Uiso   1.00
H71    H     0.58647   0.26586   0.73653   0.00000  Uiso   1.00
H72    H     0.88209   0.25657   0.66520   0.00000  Uiso   1.00
H73    H     0.54808   0.89941   0.70245   0.00000  Uiso   1.00
H74    H     0.51282   0.40486   0.78667   0.00000  Uiso   1.00
H75    H     0.13613   0.38526   0.63627   0.00000  Uiso   1.00
H76    H     0.43182   0.63211   0.71480   0.00000  Uiso   1.00
H77    H     0.89290   0.14171   0.81712   0.00000  Uiso   1.00
H78    H     0.81307   0.26698   0.85535   0.00000  Uiso   1.00
H79    H     0.10869   0.25771   0.78402   0.00000  Uiso   1.00
H80    H     0.77468   0.90055   0.82126   0.00000  Uiso   1.00
H81    H     0.69674   0.40578   0.88310   0.00000  Uiso   1.00
H82    H     0.32005   0.38617   0.73270   0.00000  Uiso   1.00
H83    H     0.61574   0.63303   0.81124   0.00000  Uiso   1.00
O84    O     0.54842   0.48775   0.85799   0.00000  Uiso   1.00
O85    O     0.36618   0.46200   0.66067   0.00000  Uiso   1.00
O86    O     0.44213   0.47390   0.76371   0.00000  Uiso   1.00
N87    N     0.56704   0.38786   0.80412   0.00000  Uiso   1.00
N88    N     0.14980   0.36955   0.66351   0.00000  Uiso   1.00
N89    N     0.49135   0.66542   0.73693   0.00000  Uiso   1.00
N90    N     0.66600   0.38836   0.85601   0.00000  Uiso   1.00
N91    N     0.24877   0.37005   0.71540   0.00000  Uiso   1.00
N92    N     0.59032   0.66591   0.78882   0.00000  Uiso   1.00
C93    C     0.85912   0.58641   0.39696   0.00000  Uiso   1.00
C94    C     0.79095   0.49824   0.42999   0.00000  Uiso   1.00
C95    C     0.73389   0.36926   0.42885   0.00000  Uiso   1.00
C96    C     0.67643   0.30532   0.46208   0.00000  Uiso   1.00
C97    C     0.57057   0.15884   0.50831   0.00000  Uiso   1.00
C98    C     0.79597   0.66389   0.39124   0.00000  Uiso   1.00
C99    C     0.74316   0.67419   0.35752   0.00000  Uiso   1.00
C100   C     0.68994   0.74970   0.35812   0.00000  Uiso   1.00
C101   C     0.59197   0.86047   0.34418   0.00000  Uiso   1.00
C102   C     0.99003   0.67646   0.41148   0.00000  Uiso   1.00
C103   C     0.10038   0.69736   0.39476   0.00000  Uiso   1.00
C104   C     0.21055   0.78348   0.41240   0.00000  Uiso   1.00
C105   C     0.41387   0.91376   0.42989   0.00000  Uiso   1.00
C106   C     0.85854   0.70222   0.45798   0.00000  Uiso   1.00
C107   C     0.79063   0.56115   0.46313   0.00000  Uiso   1.00
C108   C     0.73325   0.49738   0.49637   0.00000  Uiso   1.00
C109   C     0.67612   0.36833   0.49528   0.00000  Uiso   1.00
C110   C     0.79565   0.72679   0.42438   0.00000  Uiso   1.00
C111   C     0.74251   0.80231   0.42503   0.00000  Uiso   1.00
C112   C     0.68962   0.81272   0.39132   0.00000  Uiso   1.00
C113   C     0.98971   0.73936   0.44462   0.00000  Uiso   1.00
C114   C     0.09973   0.82548   0.46228   0.00000  Uiso   1.00
C115   C     0.21023   0.84650   0.44560   0.00000  Uiso   1.00
H116   H     0.85936   0.53745   0.37116   0.00000  Uiso   1.00
H117   H     0.73414   0.32062   0.40320   0.00000  Uiso   1.00
H118   H     0.74343   0.62551   0.33187   0.00000  Uiso   1.00
H119   H     0.10059   0.64867   0.36912   0.00000  Uiso   1.00
H120   H     0.59514   0.10796   0.45333   0.00000  Uiso   1.00
H121   H     0.61474   0.75088   0.30293   0.00000  Uiso   1.00
H122   H     0.36789   0.79971   0.38147   0.00000  Uiso   1.00
H123   H     0.85829   0.75119   0.48379   0.00000  Uiso   1.00
H124   H     0.73302   0.54609   0.52201   0.00000  Uiso   1.00
H125   H     0.74229   0.85098   0.45068   0.00000  Uiso   1.00
H126   H     0.09945   0.87414   0.48793   0.00000  Uiso   1.00
H127   H     0.59422   0.29095   0.54977   0.00000  Uiso   1.00
H128   H     0.61383   0.93388   0.39937   0.00000  Uiso   1.00
H129   H     0.36697   0.98271   0.47791   0.00000  Uiso   1.00
O130   O     0.51225   0.06067   0.52466   0.00000  Uiso   1.00
O131   O     0.53800   0.90418   0.32734   0.00000  Uiso   1.00
O132   O     0.52610   0.96824   0.43038   0.00000  Uiso   1.00
N133   N     0.61214   0.17918   0.47079   0.00000  Uiso   1.00
N134   N     0.63045   0.78025   0.33017   0.00000  Uiso   1.00
N135   N     0.33458   0.82593   0.40359   0.00000  Uiso   1.00
N136   N     0.61164   0.27764   0.52268   0.00000  Uiso   1.00
N137   N     0.62995   0.87872   0.38206   0.00000  Uiso   1.00
N138   N     0.33409   0.92440   0.45548   0.00000  Uiso   1.00
C139   C     0.27271   0.41359   0.93637   0.00000  Uiso   1.00
C140   C     0.29270   0.50176   0.90334   0.00000  Uiso   1.00
C141   C     0.36463   0.63074   0.90448   0.00000  Uiso   1.00
C142   C     0.37111   0.69468   0.87126   0.00000  Uiso   1.00
C143   C     0.41173   0.84116   0.82502   0.00000  Uiso   1.00
C144   C     0.13208   0.33611   0.94210   0.00000  Uiso   1.00
C145   C     0.06897   0.32581   0.97582   0.00000  Uiso   1.00
C146   C     0.94024   0.25030   0.97522   0.00000  Uiso   1.00
C147   C     0.73150   0.13953   0.98915   0.00000  Uiso   1.00
C148   C     0.31356   0.32354   0.92186   0.00000  Uiso   1.00
C149   C     0.40302   0.30264   0.93857   0.00000  Uiso   1.00
C150   C     0.42707   0.21652   0.92093   0.00000  Uiso   1.00
C151   C     0.50011   0.08624   0.90345   0.00000  Uiso   1.00
C152   C     0.15632   0.29778   0.87535   0.00000  Uiso   1.00
C153   C     0.22948   0.43885   0.87020   0.00000  Uiso   1.00
C154   C     0.23586   0.50262   0.83696   0.00000  Uiso   1.00
C155   C     0.30779   0.63167   0.83805   0.00000  Uiso   1.00
C156   C     0.06886   0.27321   0.90895   0.00000  Uiso   1.00
C157   C     0.94020   0.19769   0.90830   0.00000  Uiso   1.00
C158   C     0.87691   0.18728   0.94201   0.00000  Uiso   1.00
C159   C     0.25035   0.26064   0.88871   0.00000  Uiso   1.00
C160   C     0.27426   0.17452   0.87105   0.00000  Uiso   1.00
C161   C     0.36373   0.15350   0.88773   0.00000  Uiso   1.00
H162   H     0.32191   0.46255   0.96218   0.00000  Uiso   1.00
H163   H     0.41353   0.67938   0.93014   0.00000  Uiso   1.00
H164   H     0.11791   0.37449   0.00146   0.00000  Uiso   1.00
H165   H     0.45192   0.35133   0.96422   0.00000  Uiso   1.00
H166   H     0.48718   0.89204   0.88000   0.00000  Uiso   1.00
H167   H     0.86387   0.24912   0.03040   0.00000  Uiso   1.00
H168   H     0.56818   0.20029   0.95186   0.00000  Uiso   1.00
H169   H     0.10710   0.24881   0.84954   0.00000  Uiso   1.00
H170   H     0.18693   0.45391   0.81132   0.00000  Uiso   1.00
H171   H     0.89131   0.14902   0.88265   0.00000  Uiso   1.00
H172   H     0.22532   0.12586   0.84540   0.00000  Uiso   1.00
H173   H     0.30326   0.70905   0.78357   0.00000  Uiso   1.00
H174   H     0.67995   0.06612   0.93397   0.00000  Uiso   1.00
H175   H     0.38426   0.01729   0.85543   0.00000  Uiso   1.00
O176   O     0.45158   0.93933   0.80867   0.00000  Uiso   1.00
O177   O     0.63382   0.09582   0.00599   0.00000  Uiso   1.00
O178   O     0.55787   0.03176   0.90296   0.00000  Uiso   1.00
N179   N     0.43296   0.82082   0.86255   0.00000  Uiso   1.00
N180   N     0.85020   0.21975   0.00316   0.00000  Uiso   1.00
N181   N     0.50865   0.17407   0.92974   0.00000  Uiso   1.00
N182   N     0.33400   0.72236   0.81066   0.00000  Uiso   1.00
N183   N     0.75123   0.12128   0.95127   0.00000  Uiso   1.00
N184   N     0.40968   0.07560   0.87785   0.00000  Uiso   1.00
C185   C     0.14088   0.72729   0.26970   0.00000  Uiso   1.00
C186   C     0.20905   0.70730   0.23668   0.00000  Uiso   1.00
C187   C     0.26611   0.63537   0.23781   0.00000  Uiso   1.00
C188   C     0.32357   0.62889   0.20459   0.00000  Uiso   1.00
C189   C     0.42943   0.58827   0.15835   0.00000  Uiso   1.00
C190   C     0.20403   0.86792   0.27543   0.00000  Uiso   1.00
C191   C     0.25684   0.93103   0.30915   0.00000  Uiso   1.00
C192   C     0.31006   0.05976   0.30855   0.00000  Uiso   1.00
C193   C     0.40803   0.26850   0.32248   0.00000  Uiso   1.00
C194   C     0.00997   0.68644   0.25519   0.00000  Uiso   1.00
C195   C     0.89962   0.59698   0.27190   0.00000  Uiso   1.00
C196   C     0.78945   0.57293   0.25427   0.00000  Uiso   1.00
C197   C     0.58613   0.49989   0.23678   0.00000  Uiso   1.00
C198   C     0.14146   0.84368   0.20868   0.00000  Uiso   1.00
C199   C     0.20937   0.77052   0.20353   0.00000  Uiso   1.00
C200   C     0.26675   0.76414   0.17030   0.00000  Uiso   1.00
C201   C     0.32388   0.69221   0.17138   0.00000  Uiso   1.00
C202   C     0.20435   0.93114   0.24229   0.00000  Uiso   1.00
C203   C     0.25749   0.05980   0.24164   0.00000  Uiso   1.00
C204   C     0.31038   0.12309   0.27535   0.00000  Uiso   1.00
C205   C     0.01029   0.74965   0.22205   0.00000  Uiso   1.00
C206   C     0.90027   0.72574   0.20439   0.00000  Uiso   1.00
C207   C     0.78977   0.63627   0.22106   0.00000  Uiso   1.00
H208   H     0.14064   0.67809   0.29551   0.00000  Uiso   1.00
H209   H     0.26586   0.58647   0.26347   0.00000  Uiso   1.00
H210   H     0.25657   0.88209   0.33480   0.00000  Uiso   1.00
H211   H     0.89941   0.54808   0.29755   0.00000  Uiso   1.00
H212   H     0.40486   0.51282   0.21333   0.00000  Uiso   1.00
H213   H     0.38526   0.13613   0.36373   0.00000  Uiso   1.00
H214   H     0.63211   0.43182   0.28520   0.00000  Uiso   1.00
H215   H     0.14171   0.89290   0.18288   0.00000  Uiso   1.00
H216   H     0.26698   0.81307   0.14465   0.00000  Uiso   1.00
H217   H     0.25771   0.10869   0.21598   0.00000  Uiso   1.00
H218   H     0.90055   0.77468   0.17874   0.00000  Uiso   1.00
H219   H     0.40578   0.69674   0.11690   0.00000  Uiso   1.00
H220   H     0.38617   0.32005   0.26730   0.00000  Uiso   1.00
H221   H     0.63303   0.61574   0.18876   0.00000  Uiso   1.00
O222   O     0.48775   0.54842   0.14201   0.00000  Uiso   1.00
O223   O     0.46200   0.36618   0.33933   0.00000  Uiso   1.00
O224   O     0.47390   0.44213   0.23629   0.00000  Uiso   1.00
N225   N     0.38786   0.56704   0.19588   0.00000  Uiso   1.00
N226   N     0.36955   0.14980   0.33649   0.00000  Uiso   1.00
N227   N     0.66542   0.49135   0.26307   0.00000  Uiso   1.00
N228   N     0.38836   0.66600   0.14399   0.00000  Uiso   1.00
N229   N     0.37005   0.24877   0.28460   0.00000  Uiso   1.00
N230   N     0.66591   0.59032   0.21118   0.00000  Uiso   1.00
C231   C     0.58641   0.85912   0.60304   0.00000  Uiso   1.00
C232   C     0.49824   0.79095   0.57001   0.00000  Uiso   1.00
C233   C     0.36926   0.73389   0.57115   0.00000  Uiso   1.00
C234   C     0.30532   0.67643   0.53792   0.00000  Uiso   1.00
C235   C     0.15884   0.57057   0.49169   0.00000  Uiso   1.00
C236   C     0.66389   0.79597   0.60876   0.00000  Uiso   1.00
C237   C     0.67419   0.74316   0.64248   0.00000  Uiso   1.00
C238   C     0.74970   0.68994   0.64188   0.00000  Uiso   1.00
C239   C     0.86047   0.59197   0.65582   0.00000  Uiso   1.00
C240   C     0.67646   0.99003   0.58852   0.00000  Uiso   1.00
C241   C     0.69736   0.10038   0.60524   0.00000  Uiso   1.00
C242   C     0.78348   0.21055   0.58760   0.00000  Uiso   1.00
C243   C     0.91376   0.41387   0.57011   0.00000  Uiso   1.00
C244   C     0.70222   0.85854   0.54202   0.00000  Uiso   1.00
C245   C     0.56115   0.79063   0.53687   0.00000  Uiso   1.00
C246   C     0.49738   0.73325   0.50363   0.00000  Uiso   1.00
C247   C     0.36833   0.67612   0.50472   0.00000  Uiso   1.00
C248   C     0.72679   0.79565   0.57562   0.00000  Uiso   1.00
C249   C     0.80231   0.74251   0.57497   0.00000  Uiso   1.00
C250   C     0.81272   0.68962   0.60868   0.00000  Uiso   1.00
C251   C     0.73936   0.98971   0.55538   0.00000  Uiso   1.00
C252   C     0.82548   0.09973   0.53772   0.00000  Uiso   1.00
C253   C     0.84650   0.21023   0.55440   0.00000  Uiso   1.00
H254   H     0.53745   0.85936   0.62884   0.00000  Uiso   1.00
H255   H     0.32062   0.73414   0.59680   0.00000  Uiso   1.00
H256   H     0.62551   0.74343   0.66813   0.00000  Uiso   1.00
H257   H     0.64867   0.10059   0.63088   0.00000  Uiso   1.00
H258   H     0.10796   0.59514   0.54667   0.00000  Uiso   1.00
H259   H     0.75088   0.61474   0.69707   0.00000  Uiso   1.00
H260   H     0.79971   0.36789   0.61853   0.00000  Uiso   1.00
H261   H     0.75119   0.85829   0.51621   0.00000  Uiso   1.00
H262   H     0.54609   0.73302   0.47799   0.00000  Uiso   1.00
H263   H     0.85098   0.74229   0.54932   0.00000  Uiso   1.00
H264   H     0.87414   0.09945   0.51207   0.00000  Uiso   1.00
H265   H     0.29095   0.59422   0.45023   0.00000  Uiso   1.00
H266   H     0.93388   0.61383   0.60063   0.00000  Uiso   1.00
H267   H     0.98271   0.36697   0.52209   0.00000  Uiso   1.00
O268   O     0.06067   0.51225   0.47534   0.00000  Uiso   1.00
O269   O     0.90418   0.53800   0.67266   0.00000  Uiso   1.00
O270   O     0.96824   0.52610   0.56962   0.00000  Uiso   1.00
N271   N     0.17918   0.61214   0.52921   0.00000  Uiso   1.00
N272   N     0.78025   0.63045   0.66983   0.00000  Uiso   1.00
N273   N     0.82593   0.33458   0.59641   0.00000  Uiso   1.00
N274   N     0.27764   0.61164   0.47732   0.00000  Uiso   1.00
N275   N     0.87872   0.62995   0.61794   0.00000  Uiso   1.00
N276   N     0.92440   0.33409   0.54452   0.00000  Uiso   1.00
