data_job_04152
_audit_creation_date              2018-12-19
_audit_creation_method            'Materials Studio'
_symmetry_space_group_name_H-M    'P1'
_symmetry_Int_Tables_number       1
_symmetry_cell_setting            triclinic
loop_
_symmetry_equiv_pos_as_xyz
  x,y,z
_cell_length_a                    21.2388
_cell_length_b                    9.9097
_cell_length_c                    21.4736
_cell_angle_alpha                 90.0000
_cell_angle_beta                  90.0000
_cell_angle_gamma                 90.0000
loop_
_atom_site_label
_atom_site_type_symbol
_atom_site_fract_x
_atom_site_fract_y
_atom_site_fract_z
_atom_site_U_iso_or_equiv
_atom_site_adp_type
_atom_site_occupancy
C1     C     0.13161   0.12544   0.64381   0.00000  Uiso   1.00
C2     C     0.14362   0.09712   0.71260   0.00000  Uiso   1.00
C3     C     0.19272   0.02055   0.73646   0.00000  Uiso   1.00
C4     C     0.19551   0.00658   0.80073   0.00000  Uiso   1.00
C5     C     0.22095   0.95335   0.90161   0.00000  Uiso   1.00
C6     C     0.06477   0.07687   0.63072   0.00000  Uiso   1.00
C7     C     0.04758   0.98329   0.58575   0.00000  Uiso   1.00
C8     C     0.98400   0.95230   0.58109   0.00000  Uiso   1.00
C9     C     0.88703   0.86771   0.55483   0.00000  Uiso   1.00
C10    C     0.12999   0.27862   0.63726   0.00000  Uiso   1.00
C11    C     0.16762   0.35467   0.59776   0.00000  Uiso   1.00
C12    C     0.15894   0.49353   0.59861   0.00000  Uiso   1.00
C13    C     0.16322   0.72218   0.58249   0.00000  Uiso   1.00
C14    C     0.04926   0.23680   0.71552   0.00000  Uiso   1.00
C15    C     0.09889   0.15761   0.75154   0.00000  Uiso   1.00
C16    C     0.10161   0.14376   0.81580   0.00000  Uiso   1.00
C17    C     0.15071   0.06718   0.83976   0.00000  Uiso   1.00
C18    C     0.02005   0.13736   0.66967   0.00000  Uiso   1.00
C19    C     0.95648   0.10650   0.66508   0.00000  Uiso   1.00
C20    C     0.93919   0.01289   0.62011   0.00000  Uiso   1.00
C21    C     0.08526   0.33911   0.67621   0.00000  Uiso   1.00
C22    C     0.07652   0.47788   0.67711   0.00000  Uiso   1.00
C23    C     0.11413   0.55413   0.63762   0.00000  Uiso   1.00
H24    H     0.16642   0.07834   0.61349   0.00000  Uiso   1.00
H25    H     0.22732   0.97375   0.70630   0.00000  Uiso   1.00
H26    H     0.08220   0.93651   0.55561   0.00000  Uiso   1.00
H27    H     0.20223   0.30783   0.56763   0.00000  Uiso   1.00
H28    H     0.27510   0.88441   0.82638   0.00000  Uiso   1.00
H29    H     0.96911   0.80594   0.50862   0.00000  Uiso   1.00
H30    H     0.22220   0.58893   0.53397   0.00000  Uiso   1.00
H31    H     0.01443   0.28389   0.74584   0.00000  Uiso   1.00
H32    H     0.06699   0.19057   0.84593   0.00000  Uiso   1.00
H33    H     0.92188   0.15333   0.69523   0.00000  Uiso   1.00
H34    H     0.04190   0.52465   0.70725   0.00000  Uiso   1.00
H35    H     0.14497   0.06039   0.93971   0.00000  Uiso   1.00
H36    H     0.83898   0.98192   0.62194   0.00000  Uiso   1.00
H37    H     0.09207   0.76491   0.64729   0.00000  Uiso   1.00
O38    O     0.24734   0.90727   0.94649   0.00000  Uiso   1.00
O39    O     0.84590   0.80433   0.52959   0.00000  Uiso   1.00
O40    O     0.17794   0.83160   0.56285   0.00000  Uiso   1.00
N41    N     0.23727   0.93866   0.83932   0.00000  Uiso   1.00
N42    N     0.95119   0.86527   0.54223   0.00000  Uiso   1.00
N43    N     0.18779   0.59730   0.56592   0.00000  Uiso   1.00
N44    N     0.16724   0.03335   0.90030   0.00000  Uiso   1.00
N45    N     0.88117   0.95997   0.60321   0.00000  Uiso   1.00
N46    N     0.11777   0.69200   0.62690   0.00000  Uiso   1.00
C47    C     0.36839   0.37456   0.64381   0.00000  Uiso   1.00
C48    C     0.35638   0.40288   0.71260   0.00000  Uiso   1.00
C49    C     0.30728   0.47945   0.73646   0.00000  Uiso   1.00
C50    C     0.30449   0.49342   0.80073   0.00000  Uiso   1.00
C51    C     0.27905   0.54665   0.90161   0.00000  Uiso   1.00
C52    C     0.43523   0.42313   0.63072   0.00000  Uiso   1.00
C53    C     0.45242   0.51671   0.58575   0.00000  Uiso   1.00
C54    C     0.51600   0.54770   0.58109   0.00000  Uiso   1.00
C55    C     0.61297   0.63229   0.55483   0.00000  Uiso   1.00
C56    C     0.37001   0.22138   0.63726   0.00000  Uiso   1.00
C57    C     0.33238   0.14533   0.59776   0.00000  Uiso   1.00
C58    C     0.34106   0.00647   0.59861   0.00000  Uiso   1.00
C59    C     0.33678   0.77782   0.58249   0.00000  Uiso   1.00
C60    C     0.45074   0.26320   0.71552   0.00000  Uiso   1.00
C61    C     0.40111   0.34239   0.75154   0.00000  Uiso   1.00
C62    C     0.39839   0.35624   0.81580   0.00000  Uiso   1.00
C63    C     0.34929   0.43282   0.83976   0.00000  Uiso   1.00
C64    C     0.47995   0.36264   0.66967   0.00000  Uiso   1.00
C65    C     0.54352   0.39350   0.66508   0.00000  Uiso   1.00
C66    C     0.56081   0.48711   0.62011   0.00000  Uiso   1.00
C67    C     0.41474   0.16089   0.67621   0.00000  Uiso   1.00
C68    C     0.42348   0.02212   0.67711   0.00000  Uiso   1.00
C69    C     0.38587   0.94587   0.63762   0.00000  Uiso   1.00
H70    H     0.33358   0.42166   0.61349   0.00000  Uiso   1.00
H71    H     0.27268   0.52625   0.70630   0.00000  Uiso   1.00
H72    H     0.41780   0.56349   0.55561   0.00000  Uiso   1.00
H73    H     0.29777   0.19217   0.56763   0.00000  Uiso   1.00
H74    H     0.22490   0.61559   0.82638   0.00000  Uiso   1.00
H75    H     0.53089   0.69406   0.50862   0.00000  Uiso   1.00
H76    H     0.27780   0.91107   0.53397   0.00000  Uiso   1.00
H77    H     0.48557   0.21611   0.74584   0.00000  Uiso   1.00
H78    H     0.43301   0.30943   0.84593   0.00000  Uiso   1.00
H79    H     0.57812   0.34667   0.69523   0.00000  Uiso   1.00
H80    H     0.45810   0.97535   0.70725   0.00000  Uiso   1.00
H81    H     0.35503   0.43961   0.93971   0.00000  Uiso   1.00
H82    H     0.66102   0.51808   0.62194   0.00000  Uiso   1.00
H83    H     0.40793   0.73509   0.64729   0.00000  Uiso   1.00
O84    O     0.25266   0.59273   0.94649   0.00000  Uiso   1.00
O85    O     0.65410   0.69567   0.52959   0.00000  Uiso   1.00
O86    O     0.32206   0.66840   0.56285   0.00000  Uiso   1.00
N87    N     0.26273   0.56134   0.83932   0.00000  Uiso   1.00
N88    N     0.54881   0.63473   0.54223   0.00000  Uiso   1.00
N89    N     0.31221   0.90270   0.56592   0.00000  Uiso   1.00
N90    N     0.33276   0.46665   0.90030   0.00000  Uiso   1.00
N91    N     0.61883   0.54003   0.60321   0.00000  Uiso   1.00
N92    N     0.38223   0.80800   0.62690   0.00000  Uiso   1.00
C93    C     0.86839   0.62544   0.85619   0.00000  Uiso   1.00
C94    C     0.85638   0.59712   0.78740   0.00000  Uiso   1.00
C95    C     0.80728   0.52055   0.76354   0.00000  Uiso   1.00
C96    C     0.80449   0.50658   0.69927   0.00000  Uiso   1.00
C97    C     0.77905   0.45335   0.59839   0.00000  Uiso   1.00
C98    C     0.93523   0.57687   0.86928   0.00000  Uiso   1.00
C99    C     0.95242   0.48329   0.91425   0.00000  Uiso   1.00
C100   C     0.01600   0.45230   0.91891   0.00000  Uiso   1.00
C101   C     0.11297   0.36771   0.94517   0.00000  Uiso   1.00
C102   C     0.87001   0.77862   0.86274   0.00000  Uiso   1.00
C103   C     0.83238   0.85467   0.90224   0.00000  Uiso   1.00
C104   C     0.84106   0.99353   0.90139   0.00000  Uiso   1.00
C105   C     0.83678   0.22218   0.91751   0.00000  Uiso   1.00
C106   C     0.95074   0.73680   0.78448   0.00000  Uiso   1.00
C107   C     0.90111   0.65761   0.74846   0.00000  Uiso   1.00
C108   C     0.89839   0.64376   0.68420   0.00000  Uiso   1.00
C109   C     0.84929   0.56718   0.66024   0.00000  Uiso   1.00
C110   C     0.97995   0.63736   0.83033   0.00000  Uiso   1.00
C111   C     0.04352   0.60650   0.83492   0.00000  Uiso   1.00
C112   C     0.06081   0.51289   0.87989   0.00000  Uiso   1.00
C113   C     0.91474   0.83911   0.82379   0.00000  Uiso   1.00
C114   C     0.92348   0.97788   0.82289   0.00000  Uiso   1.00
C115   C     0.88587   0.05413   0.86238   0.00000  Uiso   1.00
H116   H     0.83358   0.57834   0.88651   0.00000  Uiso   1.00
H117   H     0.77268   0.47375   0.79370   0.00000  Uiso   1.00
H118   H     0.91780   0.43651   0.94439   0.00000  Uiso   1.00
H119   H     0.79777   0.80783   0.93237   0.00000  Uiso   1.00
H120   H     0.72490   0.38441   0.67362   0.00000  Uiso   1.00
H121   H     0.03089   0.30594   0.99138   0.00000  Uiso   1.00
H122   H     0.77780   0.08893   0.96603   0.00000  Uiso   1.00
H123   H     0.98557   0.78389   0.75416   0.00000  Uiso   1.00
H124   H     0.93301   0.69057   0.65407   0.00000  Uiso   1.00
H125   H     0.07812   0.65333   0.80477   0.00000  Uiso   1.00
H126   H     0.95810   0.02465   0.79275   0.00000  Uiso   1.00
H127   H     0.85503   0.56039   0.56029   0.00000  Uiso   1.00
H128   H     0.16102   0.48192   0.87806   0.00000  Uiso   1.00
H129   H     0.90793   0.26491   0.85271   0.00000  Uiso   1.00
O130   O     0.75266   0.40727   0.55351   0.00000  Uiso   1.00
O131   O     0.15410   0.30433   0.97041   0.00000  Uiso   1.00
O132   O     0.82206   0.33160   0.93715   0.00000  Uiso   1.00
N133   N     0.76273   0.43866   0.66068   0.00000  Uiso   1.00
N134   N     0.04881   0.36527   0.95777   0.00000  Uiso   1.00
N135   N     0.81221   0.09730   0.93408   0.00000  Uiso   1.00
N136   N     0.83276   0.53335   0.59970   0.00000  Uiso   1.00
N137   N     0.11883   0.45997   0.89679   0.00000  Uiso   1.00
N138   N     0.88223   0.19200   0.87310   0.00000  Uiso   1.00
C139   C     0.63161   0.87456   0.85619   0.00000  Uiso   1.00
C140   C     0.64362   0.90288   0.78740   0.00000  Uiso   1.00
C141   C     0.69272   0.97945   0.76354   0.00000  Uiso   1.00
C142   C     0.69551   0.99342   0.69927   0.00000  Uiso   1.00
C143   C     0.72095   0.04665   0.59839   0.00000  Uiso   1.00
C144   C     0.56477   0.92313   0.86928   0.00000  Uiso   1.00
C145   C     0.54758   0.01671   0.91425   0.00000  Uiso   1.00
C146   C     0.48400   0.04770   0.91891   0.00000  Uiso   1.00
C147   C     0.38703   0.13229   0.94517   0.00000  Uiso   1.00
C148   C     0.62999   0.72138   0.86274   0.00000  Uiso   1.00
C149   C     0.66762   0.64533   0.90224   0.00000  Uiso   1.00
C150   C     0.65894   0.50647   0.90139   0.00000  Uiso   1.00
C151   C     0.66322   0.27782   0.91751   0.00000  Uiso   1.00
C152   C     0.54926   0.76320   0.78448   0.00000  Uiso   1.00
C153   C     0.59889   0.84239   0.74846   0.00000  Uiso   1.00
C154   C     0.60161   0.85624   0.68420   0.00000  Uiso   1.00
C155   C     0.65071   0.93282   0.66024   0.00000  Uiso   1.00
C156   C     0.52005   0.86264   0.83033   0.00000  Uiso   1.00
C157   C     0.45648   0.89350   0.83492   0.00000  Uiso   1.00
C158   C     0.43919   0.98711   0.87989   0.00000  Uiso   1.00
C159   C     0.58526   0.66089   0.82379   0.00000  Uiso   1.00
C160   C     0.57652   0.52212   0.82289   0.00000  Uiso   1.00
C161   C     0.61413   0.44587   0.86238   0.00000  Uiso   1.00
H162   H     0.66642   0.92166   0.88651   0.00000  Uiso   1.00
H163   H     0.72732   0.02625   0.79370   0.00000  Uiso   1.00
H164   H     0.58220   0.06349   0.94439   0.00000  Uiso   1.00
H165   H     0.70223   0.69217   0.93237   0.00000  Uiso   1.00
H166   H     0.77510   0.11559   0.67362   0.00000  Uiso   1.00
H167   H     0.46911   0.19406   0.99138   0.00000  Uiso   1.00
H168   H     0.72220   0.41107   0.96603   0.00000  Uiso   1.00
H169   H     0.51443   0.71611   0.75416   0.00000  Uiso   1.00
H170   H     0.56699   0.80943   0.65407   0.00000  Uiso   1.00
H171   H     0.42188   0.84667   0.80477   0.00000  Uiso   1.00
H172   H     0.54190   0.47535   0.79275   0.00000  Uiso   1.00
H173   H     0.64497   0.93961   0.56029   0.00000  Uiso   1.00
H174   H     0.33898   0.01808   0.87806   0.00000  Uiso   1.00
H175   H     0.59207   0.23509   0.85271   0.00000  Uiso   1.00
O176   O     0.74734   0.09273   0.55351   0.00000  Uiso   1.00
O177   O     0.34590   0.19567   0.97041   0.00000  Uiso   1.00
O178   O     0.67794   0.16840   0.93715   0.00000  Uiso   1.00
N179   N     0.73727   0.06134   0.66068   0.00000  Uiso   1.00
N180   N     0.45119   0.13473   0.95777   0.00000  Uiso   1.00
N181   N     0.68779   0.40270   0.93408   0.00000  Uiso   1.00
N182   N     0.66724   0.96665   0.59970   0.00000  Uiso   1.00
N183   N     0.38117   0.04003   0.89679   0.00000  Uiso   1.00
N184   N     0.61777   0.30800   0.87310   0.00000  Uiso   1.00
C185   C     0.86839   0.87456   0.35619   0.00000  Uiso   1.00
C186   C     0.85638   0.90288   0.28740   0.00000  Uiso   1.00
C187   C     0.80728   0.97945   0.26354   0.00000  Uiso   1.00
C188   C     0.80449   0.99342   0.19927   0.00000  Uiso   1.00
C189   C     0.77905   0.04665   0.09839   0.00000  Uiso   1.00
C190   C     0.93523   0.92313   0.36928   0.00000  Uiso   1.00
C191   C     0.95242   0.01671   0.41425   0.00000  Uiso   1.00
C192   C     0.01600   0.04770   0.41891   0.00000  Uiso   1.00
C193   C     0.11297   0.13229   0.44517   0.00000  Uiso   1.00
C194   C     0.87001   0.72138   0.36274   0.00000  Uiso   1.00
C195   C     0.83238   0.64533   0.40224   0.00000  Uiso   1.00
C196   C     0.84106   0.50647   0.40139   0.00000  Uiso   1.00
C197   C     0.83678   0.27782   0.41751   0.00000  Uiso   1.00
C198   C     0.95074   0.76320   0.28448   0.00000  Uiso   1.00
C199   C     0.90111   0.84239   0.24846   0.00000  Uiso   1.00
C200   C     0.89839   0.85624   0.18420   0.00000  Uiso   1.00
C201   C     0.84929   0.93282   0.16024   0.00000  Uiso   1.00
C202   C     0.97995   0.86264   0.33033   0.00000  Uiso   1.00
C203   C     0.04352   0.89350   0.33492   0.00000  Uiso   1.00
C204   C     0.06081   0.98711   0.37989   0.00000  Uiso   1.00
C205   C     0.91474   0.66089   0.32379   0.00000  Uiso   1.00
C206   C     0.92348   0.52212   0.32289   0.00000  Uiso   1.00
C207   C     0.88587   0.44587   0.36238   0.00000  Uiso   1.00
H208   H     0.83358   0.92166   0.38651   0.00000  Uiso   1.00
H209   H     0.77268   0.02625   0.29370   0.00000  Uiso   1.00
H210   H     0.91780   0.06349   0.44439   0.00000  Uiso   1.00
H211   H     0.79777   0.69217   0.43237   0.00000  Uiso   1.00
H212   H     0.72490   0.11559   0.17362   0.00000  Uiso   1.00
H213   H     0.03089   0.19406   0.49138   0.00000  Uiso   1.00
H214   H     0.77780   0.41107   0.46603   0.00000  Uiso   1.00
H215   H     0.98557   0.71611   0.25416   0.00000  Uiso   1.00
H216   H     0.93301   0.80943   0.15407   0.00000  Uiso   1.00
H217   H     0.07812   0.84667   0.30477   0.00000  Uiso   1.00
H218   H     0.95810   0.47535   0.29275   0.00000  Uiso   1.00
H219   H     0.85503   0.93961   0.06029   0.00000  Uiso   1.00
H220   H     0.16102   0.01808   0.37806   0.00000  Uiso   1.00
H221   H     0.90793   0.23509   0.35271   0.00000  Uiso   1.00
O222   O     0.75266   0.09273   0.05351   0.00000  Uiso   1.00
O223   O     0.15410   0.19567   0.47041   0.00000  Uiso   1.00
O224   O     0.82206   0.16840   0.43715   0.00000  Uiso   1.00
N225   N     0.76273   0.06134   0.16068   0.00000  Uiso   1.00
N226   N     0.04881   0.13473   0.45777   0.00000  Uiso   1.00
N227   N     0.81221   0.40270   0.43408   0.00000  Uiso   1.00
N228   N     0.83276   0.96665   0.09970   0.00000  Uiso   1.00
N229   N     0.11883   0.04003   0.39679   0.00000  Uiso   1.00
N230   N     0.88223   0.30800   0.37310   0.00000  Uiso   1.00
C231   C     0.63161   0.62544   0.35619   0.00000  Uiso   1.00
C232   C     0.64362   0.59712   0.28740   0.00000  Uiso   1.00
C233   C     0.69272   0.52055   0.26354   0.00000  Uiso   1.00
C234   C     0.69551   0.50658   0.19927   0.00000  Uiso   1.00
C235   C     0.72095   0.45335   0.09839   0.00000  Uiso   1.00
C236   C     0.56477   0.57687   0.36928   0.00000  Uiso   1.00
C237   C     0.54758   0.48329   0.41425   0.00000  Uiso   1.00
C238   C     0.48400   0.45230   0.41891   0.00000  Uiso   1.00
C239   C     0.38703   0.36771   0.44517   0.00000  Uiso   1.00
C240   C     0.62999   0.77862   0.36274   0.00000  Uiso   1.00
C241   C     0.66762   0.85467   0.40224   0.00000  Uiso   1.00
C242   C     0.65894   0.99353   0.40139   0.00000  Uiso   1.00
C243   C     0.66322   0.22218   0.41751   0.00000  Uiso   1.00
C244   C     0.54926   0.73680   0.28448   0.00000  Uiso   1.00
C245   C     0.59889   0.65761   0.24846   0.00000  Uiso   1.00
C246   C     0.60161   0.64376   0.18420   0.00000  Uiso   1.00
C247   C     0.65071   0.56718   0.16024   0.00000  Uiso   1.00
C248   C     0.52005   0.63736   0.33033   0.00000  Uiso   1.00
C249   C     0.45648   0.60650   0.33492   0.00000  Uiso   1.00
C250   C     0.43919   0.51289   0.37989   0.00000  Uiso   1.00
C251   C     0.58526   0.83911   0.32379   0.00000  Uiso   1.00
C252   C     0.57652   0.97788   0.32289   0.00000  Uiso   1.00
C253   C     0.61413   0.05413   0.36238   0.00000  Uiso   1.00
H254   H     0.66642   0.57834   0.38651   0.00000  Uiso   1.00
H255   H     0.72732   0.47375   0.29370   0.00000  Uiso   1.00
H256   H     0.58220   0.43651   0.44439   0.00000  Uiso   1.00
H257   H     0.70223   0.80783   0.43237   0.00000  Uiso   1.00
H258   H     0.77510   0.38441   0.17362   0.00000  Uiso   1.00
H259   H     0.46911   0.30594   0.49138   0.00000  Uiso   1.00
H260   H     0.72220   0.08893   0.46603   0.00000  Uiso   1.00
H261   H     0.51443   0.78389   0.25416   0.00000  Uiso   1.00
H262   H     0.56699   0.69057   0.15407   0.00000  Uiso   1.00
H263   H     0.42188   0.65333   0.30477   0.00000  Uiso   1.00
H264   H     0.54190   0.02465   0.29275   0.00000  Uiso   1.00
H265   H     0.64497   0.56039   0.06029   0.00000  Uiso   1.00
H266   H     0.33898   0.48192   0.37806   0.00000  Uiso   1.00
H267   H     0.59207   0.26491   0.35271   0.00000  Uiso   1.00
O268   O     0.74734   0.40727   0.05351   0.00000  Uiso   1.00
O269   O     0.34590   0.30433   0.47041   0.00000  Uiso   1.00
O270   O     0.67794   0.33160   0.43715   0.00000  Uiso   1.00
N271   N     0.73727   0.43866   0.16068   0.00000  Uiso   1.00
N272   N     0.45119   0.36527   0.45777   0.00000  Uiso   1.00
N273   N     0.68779   0.09730   0.43408   0.00000  Uiso   1.00
N274   N     0.66724   0.53335   0.09970   0.00000  Uiso   1.00
N275   N     0.38117   0.45997   0.39679   0.00000  Uiso   1.00
N276   N     0.61777   0.19200   0.37310   0.00000  Uiso   1.00
C277   C     0.13161   0.37456   0.14381   0.00000  Uiso   1.00
C278   C     0.14362   0.40288   0.21260   0.00000  Uiso   1.00
C279   C     0.19272   0.47945   0.23646   0.00000  Uiso   1.00
C280   C     0.19551   0.49342   0.30073   0.00000  Uiso   1.00
C281   C     0.22095   0.54665   0.40161   0.00000  Uiso   1.00
C282   C     0.06477   0.42313   0.13072   0.00000  Uiso   1.00
C283   C     0.04758   0.51671   0.08575   0.00000  Uiso   1.00
C284   C     0.98400   0.54770   0.08109   0.00000  Uiso   1.00
C285   C     0.88703   0.63229   0.05483   0.00000  Uiso   1.00
C286   C     0.12999   0.22138   0.13726   0.00000  Uiso   1.00
C287   C     0.16762   0.14533   0.09776   0.00000  Uiso   1.00
C288   C     0.15894   0.00647   0.09861   0.00000  Uiso   1.00
C289   C     0.16322   0.77782   0.08249   0.00000  Uiso   1.00
C290   C     0.04926   0.26320   0.21552   0.00000  Uiso   1.00
C291   C     0.09889   0.34239   0.25154   0.00000  Uiso   1.00
C292   C     0.10161   0.35624   0.31580   0.00000  Uiso   1.00
C293   C     0.15071   0.43282   0.33976   0.00000  Uiso   1.00
C294   C     0.02005   0.36264   0.16967   0.00000  Uiso   1.00
C295   C     0.95648   0.39350   0.16508   0.00000  Uiso   1.00
C296   C     0.93919   0.48711   0.12011   0.00000  Uiso   1.00
C297   C     0.08526   0.16089   0.17621   0.00000  Uiso   1.00
C298   C     0.07652   0.02212   0.17711   0.00000  Uiso   1.00
C299   C     0.11413   0.94587   0.13762   0.00000  Uiso   1.00
H300   H     0.16642   0.42166   0.11349   0.00000  Uiso   1.00
H301   H     0.22732   0.52625   0.20630   0.00000  Uiso   1.00
H302   H     0.08220   0.56349   0.05561   0.00000  Uiso   1.00
H303   H     0.20223   0.19217   0.06763   0.00000  Uiso   1.00
H304   H     0.27510   0.61559   0.32638   0.00000  Uiso   1.00
H305   H     0.96911   0.69406   0.00862   0.00000  Uiso   1.00
H306   H     0.22220   0.91107   0.03397   0.00000  Uiso   1.00
H307   H     0.01443   0.21611   0.24584   0.00000  Uiso   1.00
H308   H     0.06699   0.30943   0.34593   0.00000  Uiso   1.00
H309   H     0.92188   0.34667   0.19523   0.00000  Uiso   1.00
H310   H     0.04190   0.97535   0.20725   0.00000  Uiso   1.00
H311   H     0.14497   0.43961   0.43971   0.00000  Uiso   1.00
H312   H     0.83898   0.51808   0.12194   0.00000  Uiso   1.00
H313   H     0.09207   0.73509   0.14729   0.00000  Uiso   1.00
O314   O     0.24734   0.59273   0.44649   0.00000  Uiso   1.00
O315   O     0.84590   0.69567   0.02959   0.00000  Uiso   1.00
O316   O     0.17794   0.66840   0.06285   0.00000  Uiso   1.00
N317   N     0.23727   0.56134   0.33932   0.00000  Uiso   1.00
N318   N     0.95119   0.63473   0.04223   0.00000  Uiso   1.00
N319   N     0.18779   0.90270   0.06592   0.00000  Uiso   1.00
N320   N     0.16724   0.46665   0.40030   0.00000  Uiso   1.00
N321   N     0.88117   0.54003   0.10321   0.00000  Uiso   1.00
N322   N     0.11777   0.80800   0.12690   0.00000  Uiso   1.00
C323   C     0.36839   0.12544   0.14381   0.00000  Uiso   1.00
C324   C     0.35638   0.09712   0.21260   0.00000  Uiso   1.00
C325   C     0.30728   0.02055   0.23646   0.00000  Uiso   1.00
C326   C     0.30449   0.00658   0.30073   0.00000  Uiso   1.00
C327   C     0.27905   0.95335   0.40161   0.00000  Uiso   1.00
C328   C     0.43523   0.07687   0.13072   0.00000  Uiso   1.00
C329   C     0.45242   0.98329   0.08575   0.00000  Uiso   1.00
C330   C     0.51600   0.95230   0.08109   0.00000  Uiso   1.00
C331   C     0.61297   0.86771   0.05483   0.00000  Uiso   1.00
C332   C     0.37001   0.27862   0.13726   0.00000  Uiso   1.00
C333   C     0.33238   0.35467   0.09776   0.00000  Uiso   1.00
C334   C     0.34106   0.49353   0.09861   0.00000  Uiso   1.00
C335   C     0.33678   0.72218   0.08249   0.00000  Uiso   1.00
C336   C     0.45074   0.23680   0.21552   0.00000  Uiso   1.00
C337   C     0.40111   0.15761   0.25154   0.00000  Uiso   1.00
C338   C     0.39839   0.14376   0.31580   0.00000  Uiso   1.00
C339   C     0.34929   0.06718   0.33976   0.00000  Uiso   1.00
C340   C     0.47995   0.13736   0.16967   0.00000  Uiso   1.00
C341   C     0.54352   0.10650   0.16508   0.00000  Uiso   1.00
C342   C     0.56081   0.01289   0.12011   0.00000  Uiso   1.00
C343   C     0.41474   0.33911   0.17621   0.00000  Uiso   1.00
C344   C     0.42348   0.47788   0.17711   0.00000  Uiso   1.00
C345   C     0.38587   0.55413   0.13762   0.00000  Uiso   1.00
H346   H     0.33358   0.07834   0.11349   0.00000  Uiso   1.00
H347   H     0.27268   0.97375   0.20630   0.00000  Uiso   1.00
H348   H     0.41780   0.93651   0.05561   0.00000  Uiso   1.00
H349   H     0.29777   0.30783   0.06763   0.00000  Uiso   1.00
H350   H     0.22490   0.88441   0.32638   0.00000  Uiso   1.00
H351   H     0.53089   0.80594   0.00862   0.00000  Uiso   1.00
H352   H     0.27780   0.58893   0.03397   0.00000  Uiso   1.00
H353   H     0.48557   0.28389   0.24584   0.00000  Uiso   1.00
H354   H     0.43301   0.19057   0.34593   0.00000  Uiso   1.00
H355   H     0.57812   0.15333   0.19523   0.00000  Uiso   1.00
H356   H     0.45810   0.52465   0.20725   0.00000  Uiso   1.00
H357   H     0.35503   0.06039   0.43971   0.00000  Uiso   1.00
H358   H     0.66102   0.98192   0.12194   0.00000  Uiso   1.00
H359   H     0.40793   0.76491   0.14729   0.00000  Uiso   1.00
O360   O     0.25266   0.90727   0.44649   0.00000  Uiso   1.00
O361   O     0.65410   0.80433   0.02959   0.00000  Uiso   1.00
O362   O     0.32206   0.83160   0.06285   0.00000  Uiso   1.00
N363   N     0.26273   0.93866   0.33932   0.00000  Uiso   1.00
N364   N     0.54881   0.86527   0.04223   0.00000  Uiso   1.00
N365   N     0.31221   0.59730   0.06592   0.00000  Uiso   1.00
N366   N     0.33276   0.03335   0.40030   0.00000  Uiso   1.00
N367   N     0.61883   0.95997   0.10321   0.00000  Uiso   1.00
N368   N     0.38223   0.69200   0.12690   0.00000  Uiso   1.00
