data_job_06404
_audit_creation_date              2018-12-19
_audit_creation_method            'Materials Studio'
_symmetry_space_group_name_H-M    'P1'
_symmetry_Int_Tables_number       1
_symmetry_cell_setting            triclinic
loop_
_symmetry_equiv_pos_as_xyz
  x,y,z
_cell_length_a                    12.4841
_cell_length_b                    20.5269
_cell_length_c                    20.5842
_cell_angle_alpha                 63.6490
_cell_angle_beta                  79.3966
_cell_angle_gamma                 100.5467
loop_
_atom_site_label
_atom_site_type_symbol
_atom_site_fract_x
_atom_site_fract_y
_atom_site_fract_z
_atom_site_U_iso_or_equiv
_atom_site_adp_type
_atom_site_occupancy
C1     C     0.23933   0.56696   0.37958   0.00000  Uiso   1.00
C2     C     0.31623   0.52776   0.35379   0.00000  Uiso   1.00
C3     C     0.38765   0.49211   0.39165   0.00000  Uiso   1.00
C4     C     0.45114   0.45962   0.35878   0.00000  Uiso   1.00
C5     C     0.57176   0.39830   0.32911   0.00000  Uiso   1.00
C6     C     0.27327   0.64838   0.31385   0.00000  Uiso   1.00
C7     C     0.30854   0.71414   0.31813   0.00000  Uiso   1.00
C8     C     0.33585   0.78319   0.25164   0.00000  Uiso   1.00
C9     C     0.38969   0.90914   0.15998   0.00000  Uiso   1.00
C10    C     0.11874   0.52866   0.38494   0.00000  Uiso   1.00
C11    C     0.02408   0.49378   0.44898   0.00000  Uiso   1.00
C12    C     0.92128   0.46205   0.44233   0.00000  Uiso   1.00
C13    C     0.73520   0.40213   0.46104   0.00000  Uiso   1.00
C14    C     0.22509   0.57266   0.25388   0.00000  Uiso   1.00
C15    C     0.30849   0.53085   0.28552   0.00000  Uiso   1.00
C16    C     0.37189   0.49841   0.25258   0.00000  Uiso   1.00
C17    C     0.44338   0.46271   0.29038   0.00000  Uiso   1.00
C18    C     0.26553   0.65147   0.24559   0.00000  Uiso   1.00
C19    C     0.29279   0.72044   0.17907   0.00000  Uiso   1.00
C20    C     0.32810   0.78629   0.18324   0.00000  Uiso   1.00
C21    C     0.11100   0.53175   0.31667   0.00000  Uiso   1.00
C22    C     0.00833   0.50008   0.30992   0.00000  Uiso   1.00
C23    C     0.91353   0.46516   0.37393   0.00000  Uiso   1.00
H24    H     0.24535   0.56456   0.43272   0.00000  Uiso   1.00
H25    H     0.39362   0.48973   0.44448   0.00000  Uiso   1.00
H26    H     0.31451   0.71173   0.37097   0.00000  Uiso   1.00
H27    H     0.03010   0.49140   0.50180   0.00000  Uiso   1.00
H28    H     0.55461   0.40816   0.42738   0.00000  Uiso   1.00
H29    H     0.38778   0.87625   0.27241   0.00000  Uiso   1.00
H30    H     0.78803   0.41165   0.54828   0.00000  Uiso   1.00
H31    H     0.21906   0.57507   0.20073   0.00000  Uiso   1.00
H32    H     0.36588   0.50081   0.19975   0.00000  Uiso   1.00
H33    H     0.28678   0.72281   0.12625   0.00000  Uiso   1.00
H34    H     0.00237   0.50249   0.25708   0.00000  Uiso   1.00
H35    H     0.53211   0.41716   0.22875   0.00000  Uiso   1.00
H36    H     0.36527   0.88526   0.07378   0.00000  Uiso   1.00
H37    H     0.76553   0.42065   0.34965   0.00000  Uiso   1.00
O38    O     0.64045   0.36364   0.33160   0.00000  Uiso   1.00
O39    O     0.42154   0.97777   0.12828   0.00000  Uiso   1.00
O40    O     0.63470   0.36821   0.49022   0.00000  Uiso   1.00
N41    N     0.52915   0.42045   0.38078   0.00000  Uiso   1.00
N42    N     0.37319   0.85810   0.23588   0.00000  Uiso   1.00
N43    N     0.81247   0.42375   0.49379   0.00000  Uiso   1.00
N44    N     0.51704   0.42529   0.27390   0.00000  Uiso   1.00
N45    N     0.36108   0.86294   0.12900   0.00000  Uiso   1.00
N46    N     0.80036   0.42859   0.38691   0.00000  Uiso   1.00
C47    C     0.67246   0.05323   0.56731   0.00000  Uiso   1.00
C48    C     0.78540   0.11700   0.53024   0.00000  Uiso   1.00
C49    C     0.88963   0.11355   0.49649   0.00000  Uiso   1.00
C50    C     0.98297   0.17794   0.46578   0.00000  Uiso   1.00
C51    C     0.15996   0.26699   0.40781   0.00000  Uiso   1.00
C52    C     0.62951   0.03822   0.64845   0.00000  Uiso   1.00
C53    C     0.60266   0.96853   0.71409   0.00000  Uiso   1.00
C54    C     0.56476   0.96660   0.78289   0.00000  Uiso   1.00
C55    C     0.49964   0.93333   0.90844   0.00000  Uiso   1.00
C56    C     0.58906   0.08702   0.52700   0.00000  Uiso   1.00
C57    C     0.52818   0.05835   0.49053   0.00000  Uiso   1.00
C58    C     0.45620   0.09749   0.45709   0.00000  Uiso   1.00
C59    C     0.32828   0.13999   0.39407   0.00000  Uiso   1.00
C60    C     0.65286   0.17370   0.57280   0.00000  Uiso   1.00
C61    C     0.77475   0.18244   0.53323   0.00000  Uiso   1.00
C62    C     0.86795   0.24685   0.50256   0.00000  Uiso   1.00
C63    C     0.97231   0.24349   0.46876   0.00000  Uiso   1.00
C64    C     0.61886   0.10366   0.65144   0.00000  Uiso   1.00
C65    C     0.58098   0.10182   0.72016   0.00000  Uiso   1.00
C66    C     0.55409   0.03215   0.78587   0.00000  Uiso   1.00
C67    C     0.57841   0.15246   0.52998   0.00000  Uiso   1.00
C68    C     0.50650   0.19165   0.49660   0.00000  Uiso   1.00
C69    C     0.44553   0.16305   0.46008   0.00000  Uiso   1.00
H70    H     0.68075   0.00228   0.56499   0.00000  Uiso   1.00
H71    H     0.89784   0.06290   0.49420   0.00000  Uiso   1.00
H72    H     0.61090   0.91790   0.71176   0.00000  Uiso   1.00
H73    H     0.53644   0.00771   0.48824   0.00000  Uiso   1.00
H74    H     0.13384   0.15895   0.41705   0.00000  Uiso   1.00
H75    H     0.52877   0.85321   0.87579   0.00000  Uiso   1.00
H76    H     0.37175   0.04259   0.40445   0.00000  Uiso   1.00
H77    H     0.64458   0.22465   0.57512   0.00000  Uiso   1.00
H78    H     0.85969   0.29748   0.50487   0.00000  Uiso   1.00
H79    H     0.57275   0.15247   0.72244   0.00000  Uiso   1.00
H80    H     0.49829   0.24229   0.49891   0.00000  Uiso   1.00
H81    H     0.10288   0.34935   0.42572   0.00000  Uiso   1.00
H82    H     0.49780   0.04360   0.88446   0.00000  Uiso   1.00
H83    H     0.34079   0.23298   0.41311   0.00000  Uiso   1.00
O84    O     0.26053   0.29804   0.37502   0.00000  Uiso   1.00
O85    O     0.46668   0.89690   0.97686   0.00000  Uiso   1.00
O86    O     0.26068   0.14537   0.35847   0.00000  Uiso   1.00
N87    N     0.09703   0.19377   0.42872   0.00000  Uiso   1.00
N88    N     0.53134   0.90792   0.85761   0.00000  Uiso   1.00
N89    N     0.38451   0.08496   0.41696   0.00000  Uiso   1.00
N90    N     0.08037   0.29622   0.43338   0.00000  Uiso   1.00
N91    N     0.51468   0.01037   0.86227   0.00000  Uiso   1.00
N92    N     0.36785   0.18741   0.42163   0.00000  Uiso   1.00
C93    C     0.61772   0.37893   0.05397   0.00000  Uiso   1.00
C94    C     0.66958   0.35180   0.11930   0.00000  Uiso   1.00
C95    C     0.77598   0.38792   0.11810   0.00000  Uiso   1.00
C96    C     0.80788   0.35402   0.18362   0.00000  Uiso   1.00
C97    C     0.89938   0.32216   0.27527   0.00000  Uiso   1.00
C98    C     0.58939   0.31292   0.03816   0.00000  Uiso   1.00
C99    C     0.62835   0.31634   0.96874   0.00000  Uiso   1.00
C100   C     0.59272   0.24972   0.96596   0.00000  Uiso   1.00
C101   C     0.55965   0.15750   0.93161   0.00000  Uiso   1.00
C102   C     0.50336   0.38681   0.08564   0.00000  Uiso   1.00
C103   C     0.46997   0.45235   0.05613   0.00000  Uiso   1.00
C104   C     0.36190   0.44793   0.09331   0.00000  Uiso   1.00
C105   C     0.19526   0.47044   0.13269   0.00000  Uiso   1.00
C106   C     0.48515   0.25452   0.17247   0.00000  Uiso   1.00
C107   C     0.59757   0.28422   0.18366   0.00000  Uiso   1.00
C108   C     0.62931   0.25027   0.24921   0.00000  Uiso   1.00
C109   C     0.73574   0.28633   0.24810   0.00000  Uiso   1.00
C110   C     0.51738   0.24534   0.10252   0.00000  Uiso   1.00
C111   C     0.48168   0.17870   0.09984   0.00000  Uiso   1.00
C112   C     0.52058   0.18202   0.03043   0.00000  Uiso   1.00
C113   C     0.43135   0.31923   0.15001   0.00000  Uiso   1.00
C114   C     0.32331   0.31471   0.18723   0.00000  Uiso   1.00
C115   C     0.28976   0.38024   0.15779   0.00000  Uiso   1.00
H116   H     0.67378   0.43153   0.00386   0.00000  Uiso   1.00
H117   H     0.83169   0.44021   0.06828   0.00000  Uiso   1.00
H118   H     0.68406   0.36864   0.91894   0.00000  Uiso   1.00
H119   H     0.52572   0.50464   0.00632   0.00000  Uiso   1.00
H120   H     0.97502   0.42000   0.16808   0.00000  Uiso   1.00
H121   H     0.66371   0.26912   0.85318   0.00000  Uiso   1.00
H122   H     0.32981   0.55589   0.03744   0.00000  Uiso   1.00
H123   H     0.42909   0.20190   0.22257   0.00000  Uiso   1.00
H124   H     0.57357   0.19797   0.29900   0.00000  Uiso   1.00
H125   H     0.42595   0.12641   0.14966   0.00000  Uiso   1.00
H126   H     0.26761   0.26241   0.23704   0.00000  Uiso   1.00
H127   H     0.76553   0.22340   0.35534   0.00000  Uiso   1.00
H128   H     0.45422   0.07251   0.04044   0.00000  Uiso   1.00
H129   H     0.12032   0.35928   0.22470   0.00000  Uiso   1.00
O130   O     0.96975   0.32325   0.30803   0.00000  Uiso   1.00
O131   O     0.56131   0.12530   0.89489   0.00000  Uiso   1.00
O132   O     0.12324   0.50153   0.13663   0.00000  Uiso   1.00
N133   N     0.90588   0.37428   0.20167   0.00000  Uiso   1.00
N134   N     0.61484   0.23321   0.90726   0.00000  Uiso   1.00
N135   N     0.30266   0.50131   0.07951   0.00000  Uiso   1.00
N136   N     0.79315   0.26849   0.30243   0.00000  Uiso   1.00
N137   N     0.50211   0.12742   0.00802   0.00000  Uiso   1.00
N138   N     0.18993   0.39552   0.18027   0.00000  Uiso   1.00
C139   C     0.73931   0.62031   0.43309   0.00000  Uiso   1.00
C140   C     0.81623   0.64623   0.47210   0.00000  Uiso   1.00
C141   C     0.88764   0.60828   0.50766   0.00000  Uiso   1.00
C142   C     0.95115   0.64130   0.53997   0.00000  Uiso   1.00
C143   C     0.07179   0.67114   0.60098   0.00000  Uiso   1.00
C144   C     0.77324   0.68612   0.35185   0.00000  Uiso   1.00
C145   C     0.80851   0.68172   0.28631   0.00000  Uiso   1.00
C146   C     0.83581   0.74833   0.21739   0.00000  Uiso   1.00
C147   C     0.88965   0.84009   0.09172   0.00000  Uiso   1.00
C148   C     0.61873   0.61503   0.47130   0.00000  Uiso   1.00
C149   C     0.52406   0.55084   0.50619   0.00000  Uiso   1.00
C150   C     0.42127   0.55760   0.53782   0.00000  Uiso   1.00
C151   C     0.23520   0.53897   0.59762   0.00000  Uiso   1.00
C152   C     0.72509   0.74644   0.42722   0.00000  Uiso   1.00
C153   C     0.80850   0.71474   0.46890   0.00000  Uiso   1.00
C154   C     0.87191   0.74783   0.50116   0.00000  Uiso   1.00
C155   C     0.94341   0.70993   0.53677   0.00000  Uiso   1.00
C156   C     0.76552   0.75463   0.34866   0.00000  Uiso   1.00
C157   C     0.79278   0.82126   0.27981   0.00000  Uiso   1.00
C158   C     0.82808   0.81696   0.21419   0.00000  Uiso   1.00
C159   C     0.61100   0.68354   0.46811   0.00000  Uiso   1.00
C160   C     0.50833   0.69039   0.49969   0.00000  Uiso   1.00
C161   C     0.41353   0.62623   0.53462   0.00000  Uiso   1.00
H162   H     0.74532   0.56698   0.43557   0.00000  Uiso   1.00
H163   H     0.89360   0.55526   0.51011   0.00000  Uiso   1.00
H164   H     0.81446   0.62869   0.28880   0.00000  Uiso   1.00
H165   H     0.53007   0.49784   0.50865   0.00000  Uiso   1.00
H166   H     0.05462   0.57250   0.59133   0.00000  Uiso   1.00
H167   H     0.88772   0.72732   0.12468   0.00000  Uiso   1.00
H168   H     0.28801   0.45139   0.58826   0.00000  Uiso   1.00
H169   H     0.71908   0.79978   0.42473   0.00000  Uiso   1.00
H170   H     0.86592   0.80084   0.49868   0.00000  Uiso   1.00
H171   H     0.78678   0.87427   0.27737   0.00000  Uiso   1.00
H172   H     0.50239   0.74342   0.49721   0.00000  Uiso   1.00
H173   H     0.03215   0.77183   0.58204   0.00000  Uiso   1.00
H174   H     0.86525   0.92664   0.11539   0.00000  Uiso   1.00
H175   H     0.26555   0.65071   0.57898   0.00000  Uiso   1.00
O176   O     0.14048   0.66868   0.63551   0.00000  Uiso   1.00
O177   O     0.92149   0.87178   0.02328   0.00000  Uiso   1.00
O178   O     0.13470   0.50977   0.63149   0.00000  Uiso   1.00
N179   N     0.02916   0.61926   0.57901   0.00000  Uiso   1.00
N180   N     0.87314   0.76401   0.14272   0.00000  Uiso   1.00
N181   N     0.31246   0.50604   0.57611   0.00000  Uiso   1.00
N182   N     0.01707   0.72652   0.57401   0.00000  Uiso   1.00
N183   N     0.86105   0.87126   0.13772   0.00000  Uiso   1.00
N184   N     0.30037   0.61330   0.57112   0.00000  Uiso   1.00
C185   C     0.17248   0.43272   0.94666   0.00000  Uiso   1.00
C186   C     0.28541   0.46978   0.88302   0.00000  Uiso   1.00
C187   C     0.38965   0.50363   0.88637   0.00000  Uiso   1.00
C188   C     0.48299   0.53432   0.82214   0.00000  Uiso   1.00
C189   C     0.65997   0.59230   0.73325   0.00000  Uiso   1.00
C190   C     0.12951   0.35133   0.96176   0.00000  Uiso   1.00
C191   C     0.10266   0.28558   0.03132   0.00000  Uiso   1.00
C192   C     0.06475   0.21655   0.03337   0.00000  Uiso   1.00
C193   C     0.99961   0.09063   0.06674   0.00000  Uiso   1.00
C194   C     0.08908   0.47314   0.91295   0.00000  Uiso   1.00
C195   C     0.02821   0.50980   0.94147   0.00000  Uiso   1.00
C196   C     0.95623   0.54332   0.90244   0.00000  Uiso   1.00
C197   C     0.82832   0.60654   0.86002   0.00000  Uiso   1.00
C198   C     0.15286   0.42702   0.82662   0.00000  Uiso   1.00
C199   C     0.27475   0.46669   0.81782   0.00000  Uiso   1.00
C200   C     0.36794   0.49733   0.75356   0.00000  Uiso   1.00
C201   C     0.47231   0.53122   0.75682   0.00000  Uiso   1.00
C202   C     0.11885   0.34823   0.89656   0.00000  Uiso   1.00
C203   C     0.08095   0.27928   0.89851   0.00000  Uiso   1.00
C204   C     0.05407   0.21345   0.96805   0.00000  Uiso   1.00
C205   C     0.07842   0.47005   0.84775   0.00000  Uiso   1.00
C206   C     0.00651   0.50350   0.80866   0.00000  Uiso   1.00
C207   C     0.94555   0.54022   0.83712   0.00000  Uiso   1.00
H208   H     0.18077   0.43512   0.99742   0.00000  Uiso   1.00
H209   H     0.39787   0.50601   0.93684   0.00000  Uiso   1.00
H210   H     0.11091   0.28799   0.08176   0.00000  Uiso   1.00
H211   H     0.03648   0.51219   0.99193   0.00000  Uiso   1.00
H212   H     0.63387   0.58321   0.84093   0.00000  Uiso   1.00
H213   H     0.02877   0.12351   0.14652   0.00000  Uiso   1.00
H214   H     0.87180   0.59626   0.95709   0.00000  Uiso   1.00
H215   H     0.14455   0.42461   0.77586   0.00000  Uiso   1.00
H216   H     0.35967   0.49493   0.70312   0.00000  Uiso   1.00
H217   H     0.07271   0.27691   0.84805   0.00000  Uiso   1.00
H218   H     0.99828   0.50110   0.75821   0.00000  Uiso   1.00
H219   H     0.60286   0.57421   0.65124   0.00000  Uiso   1.00
H220   H     0.99776   0.11451   0.95682   0.00000  Uiso   1.00
H221   H     0.84080   0.58727   0.76739   0.00000  Uiso   1.00
O222   O     0.76053   0.62513   0.70224   0.00000  Uiso   1.00
O223   O     0.96664   0.02203   0.10316   0.00000  Uiso   1.00
O224   O     0.76072   0.64227   0.85462   0.00000  Uiso   1.00
N225   N     0.59704   0.57146   0.80626   0.00000  Uiso   1.00
N226   N     0.03133   0.14166   0.09197   0.00000  Uiso   1.00
N227   N     0.88456   0.58363   0.91487   0.00000  Uiso   1.00
N228   N     0.58036   0.56662   0.70419   0.00000  Uiso   1.00
N229   N     0.01464   0.13682   0.98989   0.00000  Uiso   1.00
N230   N     0.86787   0.57879   0.81280   0.00000  Uiso   1.00
C231   C     0.11772   0.94609   0.62110   0.00000  Uiso   1.00
C232   C     0.16957   0.88055   0.64823   0.00000  Uiso   1.00
C233   C     0.27597   0.88167   0.61221   0.00000  Uiso   1.00
C234   C     0.30786   0.81596   0.64608   0.00000  Uiso   1.00
C235   C     0.39935   0.72402   0.67795   0.00000  Uiso   1.00
C236   C     0.08940   0.96206   0.68687   0.00000  Uiso   1.00
C237   C     0.12838   0.03172   0.68333   0.00000  Uiso   1.00
C238   C     0.09276   0.03463   0.74972   0.00000  Uiso   1.00
C239   C     0.05972   0.06925   0.84157   0.00000  Uiso   1.00
C240   C     0.00335   0.91432   0.61334   0.00000  Uiso   1.00
C241   C     0.96996   0.94384   0.54798   0.00000  Uiso   1.00
C242   C     0.86188   0.90657   0.55247   0.00000  Uiso   1.00
C243   C     0.69523   0.86706   0.53015   0.00000  Uiso   1.00
C244   C     0.98516   0.82741   0.74530   0.00000  Uiso   1.00
C245   C     0.09757   0.81609   0.71569   0.00000  Uiso   1.00
C246   C     0.12930   0.75037   0.74962   0.00000  Uiso   1.00
C247   C     0.23572   0.75138   0.71366   0.00000  Uiso   1.00
C248   C     0.01740   0.89761   0.75432   0.00000  Uiso   1.00
C249   C     0.98171   0.90042   0.82074   0.00000  Uiso   1.00
C250   C     0.02063   0.97005   0.81731   0.00000  Uiso   1.00
C251   C     0.93135   0.84986   0.68080   0.00000  Uiso   1.00
C252   C     0.82329   0.81254   0.68539   0.00000  Uiso   1.00
C253   C     0.78975   0.84199   0.62006   0.00000  Uiso   1.00
H254   H     0.17378   0.99627   0.56858   0.00000  Uiso   1.00
H255   H     0.33167   0.93156   0.56000   0.00000  Uiso   1.00
H256   H     0.18409   0.08159   0.63111   0.00000  Uiso   1.00
H257   H     0.02570   0.99373   0.49579   0.00000  Uiso   1.00
H258   H     0.47499   0.83141   0.58025   0.00000  Uiso   1.00
H259   H     0.16378   0.14775   0.73018   0.00000  Uiso   1.00
H260   H     0.82978   0.96247   0.44482   0.00000  Uiso   1.00
H261   H     0.92910   0.77723   0.79783   0.00000  Uiso   1.00
H262   H     0.07356   0.70049   0.80183   0.00000  Uiso   1.00
H263   H     0.92599   0.85052   0.87293   0.00000  Uiso   1.00
H264   H     0.76760   0.76266   0.73761   0.00000  Uiso   1.00
H265   H     0.26550   0.64386   0.77653   0.00000  Uiso   1.00
H266   H     0.95429   0.96021   0.92646   0.00000  Uiso   1.00
H267   H     0.62029   0.77493   0.64110   0.00000  Uiso   1.00
O268   O     0.46971   0.69112   0.67690   0.00000  Uiso   1.00
O269   O     0.06140   0.10616   0.87359   0.00000  Uiso   1.00
O270   O     0.62320   0.86307   0.49921   0.00000  Uiso   1.00
N271   N     0.40585   0.79779   0.62589   0.00000  Uiso   1.00
N272   N     0.11490   0.09356   0.76607   0.00000  Uiso   1.00
N273   N     0.80263   0.92035   0.49928   0.00000  Uiso   1.00
N274   N     0.29312   0.69688   0.73150   0.00000  Uiso   1.00
N275   N     0.00218   0.99264   0.87168   0.00000  Uiso   1.00
N276   N     0.68990   0.81943   0.60490   0.00000  Uiso   1.00
