data_job_04360
_audit_creation_date              2018-12-19
_audit_creation_method            'Materials Studio'
_symmetry_space_group_name_H-M    'P1'
_symmetry_Int_Tables_number       1
_symmetry_cell_setting            triclinic
loop_
_symmetry_equiv_pos_as_xyz
  x,y,z
_cell_length_a                    32.9498
_cell_length_b                    12.7074
_cell_length_c                    39.4500
_cell_angle_alpha                 90.0000
_cell_angle_beta                  163.6922
_cell_angle_gamma                 90.0000
loop_
_atom_site_label
_atom_site_type_symbol
_atom_site_fract_x
_atom_site_fract_y
_atom_site_fract_z
_atom_site_U_iso_or_equiv
_atom_site_adp_type
_atom_site_occupancy
C1     C     0.42740   0.67821   0.77027   0.00000  Uiso   1.00
C2     C     0.38388   0.57346   0.71952   0.00000  Uiso   1.00
C3     C     0.41112   0.54275   0.70821   0.00000  Uiso   1.00
C4     C     0.36249   0.44382   0.65959   0.00000  Uiso   1.00
C5     C     0.30598   0.29120   0.58620   0.00000  Uiso   1.00
C6     C     0.28827   0.72727   0.67214   0.00000  Uiso   1.00
C7     C     0.23514   0.82590   0.62100   0.00000  Uiso   1.00
C8     C     0.10603   0.85645   0.53250   0.00000  Uiso   1.00
C9     C     0.90114   0.94266   0.38562   0.00000  Uiso   1.00
C10    C     0.51766   0.65090   0.87375   0.00000  Uiso   1.00
C11    C     0.65740   0.68535   0.99212   0.00000  Uiso   1.00
C12    C     0.72141   0.65162   0.07336   0.00000  Uiso   1.00
C13    C     0.87269   0.61926   0.23950   0.00000  Uiso   1.00
C14    C     0.29259   0.55710   0.70403   0.00000  Uiso   1.00
C15    C     0.31065   0.50768   0.68354   0.00000  Uiso   1.00
C16    C     0.26197   0.40876   0.63493   0.00000  Uiso   1.00
C17    C     0.28914   0.37792   0.62355   0.00000  Uiso   1.00
C18    C     0.21504   0.66149   0.63616   0.00000  Uiso   1.00
C19    C     0.08599   0.69191   0.54772   0.00000  Uiso   1.00
C20    C     0.03267   0.79055   0.49646   0.00000  Uiso   1.00
C21    C     0.44444   0.58512   0.83777   0.00000  Uiso   1.00
C22    C     0.50825   0.55134   0.91884   0.00000  Uiso   1.00
C23    C     0.64805   0.58572   0.03732   0.00000  Uiso   1.00
H24    H     0.48440   0.72943   0.79827   0.00000  Uiso   1.00
H25    H     0.46778   0.59369   0.73605   0.00000  Uiso   1.00
H26    H     0.29183   0.87679   0.64887   0.00000  Uiso   1.00
H27    H     0.71403   0.73625   0.01993   0.00000  Uiso   1.00
H28    H     0.41701   0.41421   0.65116   0.00000  Uiso   1.00
H29    H     0.04604   0.01116   0.46736   0.00000  Uiso   1.00
H30    H     0.93633   0.71481   0.24982   0.00000  Uiso   1.00
H31    H     0.23558   0.50588   0.67602   0.00000  Uiso   1.00
H32    H     0.20531   0.35787   0.60709   0.00000  Uiso   1.00
H33    H     0.02936   0.64098   0.51991   0.00000  Uiso   1.00
H34    H     0.45155   0.50044   0.89097   0.00000  Uiso   1.00
H35    H     0.20397   0.22281   0.54649   0.00000  Uiso   1.00
H36    H     0.83300   0.81977   0.36269   0.00000  Uiso   1.00
H37    H     0.72329   0.52341   0.14514   0.00000  Uiso   1.00
O38    O     0.29502   0.22519   0.55565   0.00000  Uiso   1.00
O39    O     0.80835   0.00838   0.31453   0.00000  Uiso   1.00
O40    O     0.97637   0.61956   0.34109   0.00000  Uiso   1.00
N41    N     0.37105   0.38947   0.63601   0.00000  Uiso   1.00
N42    N     0.02421   0.94758   0.46415   0.00000  Uiso   1.00
N43    N     0.85653   0.67053   0.19567   0.00000  Uiso   1.00
N44    N     0.25642   0.28648   0.57969   0.00000  Uiso   1.00
N45    N     0.90957   0.84459   0.40783   0.00000  Uiso   1.00
N46    N     0.74190   0.56754   0.13935   0.00000  Uiso   1.00
C47    C     0.89663   0.32690   0.72843   0.00000  Uiso   1.00
C48    C     0.97583   0.42991   0.79887   0.00000  Uiso   1.00
C49    C     0.10684   0.46000   0.88976   0.00000  Uiso   1.00
C50    C     0.16145   0.55730   0.94314   0.00000  Uiso   1.00
C51    C     0.29570   0.70736   0.05807   0.00000  Uiso   1.00
C52    C     0.87441   0.27495   0.74506   0.00000  Uiso   1.00
C53    C     0.92011   0.17475   0.79070   0.00000  Uiso   1.00
C54    C     0.88933   0.14161   0.79877   0.00000  Uiso   1.00
C55    C     0.86601   0.05106   0.83009   0.00000  Uiso   1.00
C56    C     0.74649   0.35760   0.59557   0.00000  Uiso   1.00
C57    C     0.68463   0.32686   0.51550   0.00000  Uiso   1.00
C58    C     0.54613   0.36329   0.39769   0.00000  Uiso   1.00
C59    C     0.32421   0.40107   0.19690   0.00000  Uiso   1.00
C60    C     0.76066   0.44620   0.66159   0.00000  Uiso   1.00
C61    C     0.90198   0.49470   0.76256   0.00000  Uiso   1.00
C62    C     0.95640   0.59199   0.81581   0.00000  Uiso   1.00
C63    C     0.08746   0.62222   0.90677   0.00000  Uiso   1.00
C64    C     0.80055   0.33974   0.70876   0.00000  Uiso   1.00
C65    C     0.76968   0.30674   0.71676   0.00000  Uiso   1.00
C66    C     0.81534   0.20652   0.76240   0.00000  Uiso   1.00
C67    C     0.67264   0.42240   0.55926   0.00000  Uiso   1.00
C68    C     0.53420   0.45886   0.44156   0.00000  Uiso   1.00
C69    C     0.47214   0.42820   0.36132   0.00000  Uiso   1.00
H70    H     0.95413   0.27645   0.75669   0.00000  Uiso   1.00
H71    H     0.16397   0.40982   0.91783   0.00000  Uiso   1.00
H72    H     0.97725   0.12462   0.81878   0.00000  Uiso   1.00
H73    H     0.74181   0.27672   0.54362   0.00000  Uiso   1.00
H74    H     0.36406   0.58626   0.08051   0.00000  Uiso   1.00
H75    H     0.97033   0.98487   0.87160   0.00000  Uiso   1.00
H76    H     0.47385   0.30560   0.29138   0.00000  Uiso   1.00
H77    H     0.70316   0.49665   0.63333   0.00000  Uiso   1.00
H78    H     0.89922   0.64212   0.78770   0.00000  Uiso   1.00
H79    H     0.71252   0.35691   0.68865   0.00000  Uiso   1.00
H80    H     0.47708   0.50901   0.41349   0.00000  Uiso   1.00
H81    H     0.14919   0.77479   0.97489   0.00000  Uiso   1.00
H82    H     0.75545   0.17340   0.76598   0.00000  Uiso   1.00
H83    H     0.25898   0.49413   0.18577   0.00000  Uiso   1.00
O84    O     0.39016   0.77223   0.13150   0.00000  Uiso   1.00
O85    O     0.87357   0.98322   0.85741   0.00000  Uiso   1.00
O86    O     0.22221   0.40402   0.09618   0.00000  Uiso   1.00
N87    N     0.28657   0.61068   0.03445   0.00000  Uiso   1.00
N88    N     0.91847   0.04842   0.83916   0.00000  Uiso   1.00
N89    N     0.45429   0.34825   0.29669   0.00000  Uiso   1.00
N90    N     0.17095   0.71213   0.97762   0.00000  Uiso   1.00
N91    N     0.80285   0.14987   0.78232   0.00000  Uiso   1.00
N92    N     0.33867   0.44970   0.23986   0.00000  Uiso   1.00
C93    C     0.57260   0.17821   0.72973   0.00000  Uiso   1.00
C94    C     0.61612   0.07346   0.78048   0.00000  Uiso   1.00
C95    C     0.58888   0.04275   0.79179   0.00000  Uiso   1.00
C96    C     0.63751   0.94382   0.84041   0.00000  Uiso   1.00
C97    C     0.69402   0.79120   0.91380   0.00000  Uiso   1.00
C98    C     0.71173   0.22727   0.82786   0.00000  Uiso   1.00
C99    C     0.76486   0.32590   0.87900   0.00000  Uiso   1.00
C100   C     0.89397   0.35645   0.96750   0.00000  Uiso   1.00
C101   C     0.09886   0.44266   0.11438   0.00000  Uiso   1.00
C102   C     0.48234   0.15090   0.62625   0.00000  Uiso   1.00
C103   C     0.34260   0.18535   0.50788   0.00000  Uiso   1.00
C104   C     0.27859   0.15162   0.42664   0.00000  Uiso   1.00
C105   C     0.12731   0.11926   0.26050   0.00000  Uiso   1.00
C106   C     0.70741   0.05710   0.79597   0.00000  Uiso   1.00
C107   C     0.68935   0.00768   0.81646   0.00000  Uiso   1.00
C108   C     0.73803   0.90876   0.86507   0.00000  Uiso   1.00
C109   C     0.71086   0.87792   0.87645   0.00000  Uiso   1.00
C110   C     0.78496   0.16149   0.86384   0.00000  Uiso   1.00
C111   C     0.91401   0.19191   0.95228   0.00000  Uiso   1.00
C112   C     0.96733   0.29055   0.00354   0.00000  Uiso   1.00
C113   C     0.55556   0.08512   0.66223   0.00000  Uiso   1.00
C114   C     0.49175   0.05134   0.58116   0.00000  Uiso   1.00
C115   C     0.35195   0.08572   0.46268   0.00000  Uiso   1.00
H116   H     0.51560   0.22943   0.70173   0.00000  Uiso   1.00
H117   H     0.53222   0.09369   0.76395   0.00000  Uiso   1.00
H118   H     0.70817   0.37679   0.85113   0.00000  Uiso   1.00
H119   H     0.28597   0.23625   0.48007   0.00000  Uiso   1.00
H120   H     0.58299   0.91421   0.84884   0.00000  Uiso   1.00
H121   H     0.95396   0.51116   0.03264   0.00000  Uiso   1.00
H122   H     0.06367   0.21481   0.25018   0.00000  Uiso   1.00
H123   H     0.76442   0.00588   0.82398   0.00000  Uiso   1.00
H124   H     0.79469   0.85787   0.89291   0.00000  Uiso   1.00
H125   H     0.97064   0.14098   0.98009   0.00000  Uiso   1.00
H126   H     0.54845   0.00044   0.60903   0.00000  Uiso   1.00
H127   H     0.79603   0.72281   0.95351   0.00000  Uiso   1.00
H128   H     0.16700   0.31977   0.13731   0.00000  Uiso   1.00
H129   H     0.27671   0.02341   0.35486   0.00000  Uiso   1.00
O130   O     0.70498   0.72519   0.94435   0.00000  Uiso   1.00
O131   O     0.19165   0.50838   0.18547   0.00000  Uiso   1.00
O132   O     0.02363   0.11956   0.15891   0.00000  Uiso   1.00
N133   N     0.62895   0.88947   0.86399   0.00000  Uiso   1.00
N134   N     0.97579   0.44758   0.03585   0.00000  Uiso   1.00
N135   N     0.14347   0.17053   0.30433   0.00000  Uiso   1.00
N136   N     0.74358   0.78648   0.92031   0.00000  Uiso   1.00
N137   N     0.09043   0.34459   0.09217   0.00000  Uiso   1.00
N138   N     0.25810   0.06754   0.36065   0.00000  Uiso   1.00
C139   C     0.10337   0.82690   0.77157   0.00000  Uiso   1.00
C140   C     0.02417   0.92991   0.70113   0.00000  Uiso   1.00
C141   C     0.89316   0.96000   0.61024   0.00000  Uiso   1.00
C142   C     0.83855   0.05730   0.55686   0.00000  Uiso   1.00
C143   C     0.70430   0.20736   0.44193   0.00000  Uiso   1.00
C144   C     0.12559   0.77495   0.75494   0.00000  Uiso   1.00
C145   C     0.07989   0.67475   0.70930   0.00000  Uiso   1.00
C146   C     0.11067   0.64161   0.70123   0.00000  Uiso   1.00
C147   C     0.13399   0.55106   0.66991   0.00000  Uiso   1.00
C148   C     0.25351   0.85760   0.90443   0.00000  Uiso   1.00
C149   C     0.31537   0.82686   0.98450   0.00000  Uiso   1.00
C150   C     0.45387   0.86329   0.10231   0.00000  Uiso   1.00
C151   C     0.67579   0.90107   0.30310   0.00000  Uiso   1.00
C152   C     0.23934   0.94620   0.83841   0.00000  Uiso   1.00
C153   C     0.09802   0.99470   0.73744   0.00000  Uiso   1.00
C154   C     0.04360   0.09199   0.68419   0.00000  Uiso   1.00
C155   C     0.91254   0.12222   0.59323   0.00000  Uiso   1.00
C156   C     0.19945   0.83974   0.79124   0.00000  Uiso   1.00
C157   C     0.23032   0.80674   0.78324   0.00000  Uiso   1.00
C158   C     0.18466   0.70652   0.73760   0.00000  Uiso   1.00
C159   C     0.32736   0.92240   0.94074   0.00000  Uiso   1.00
C160   C     0.46580   0.95886   0.05844   0.00000  Uiso   1.00
C161   C     0.52786   0.92820   0.13868   0.00000  Uiso   1.00
H162   H     0.04587   0.77645   0.74331   0.00000  Uiso   1.00
H163   H     0.83603   0.90982   0.58217   0.00000  Uiso   1.00
H164   H     0.02275   0.62462   0.68122   0.00000  Uiso   1.00
H165   H     0.25819   0.77672   0.95638   0.00000  Uiso   1.00
H166   H     0.63594   0.08626   0.41949   0.00000  Uiso   1.00
H167   H     0.02967   0.48487   0.62840   0.00000  Uiso   1.00
H168   H     0.52615   0.80560   0.20862   0.00000  Uiso   1.00
H169   H     0.29684   0.99665   0.86667   0.00000  Uiso   1.00
H170   H     0.10078   0.14212   0.71230   0.00000  Uiso   1.00
H171   H     0.28748   0.85691   0.81135   0.00000  Uiso   1.00
H172   H     0.52292   0.00901   0.08651   0.00000  Uiso   1.00
H173   H     0.85081   0.27479   0.52511   0.00000  Uiso   1.00
H174   H     0.24455   0.67340   0.73402   0.00000  Uiso   1.00
H175   H     0.74102   0.99413   0.31423   0.00000  Uiso   1.00
O176   O     0.60984   0.27223   0.36850   0.00000  Uiso   1.00
O177   O     0.12643   0.48322   0.64259   0.00000  Uiso   1.00
O178   O     0.77779   0.90402   0.40382   0.00000  Uiso   1.00
N179   N     0.71343   0.11068   0.46555   0.00000  Uiso   1.00
N180   N     0.08153   0.54842   0.66084   0.00000  Uiso   1.00
N181   N     0.54571   0.84825   0.20331   0.00000  Uiso   1.00
N182   N     0.82905   0.21213   0.52238   0.00000  Uiso   1.00
N183   N     0.19715   0.64987   0.71768   0.00000  Uiso   1.00
N184   N     0.66133   0.94970   0.26014   0.00000  Uiso   1.00
C185   C     0.57260   0.32179   0.22973   0.00000  Uiso   1.00
C186   C     0.61612   0.42654   0.28048   0.00000  Uiso   1.00
C187   C     0.58888   0.45725   0.29179   0.00000  Uiso   1.00
C188   C     0.63751   0.55618   0.34041   0.00000  Uiso   1.00
C189   C     0.69402   0.70880   0.41380   0.00000  Uiso   1.00
C190   C     0.71173   0.27273   0.32786   0.00000  Uiso   1.00
C191   C     0.76486   0.17410   0.37900   0.00000  Uiso   1.00
C192   C     0.89397   0.14355   0.46750   0.00000  Uiso   1.00
C193   C     0.09886   0.05734   0.61438   0.00000  Uiso   1.00
C194   C     0.48234   0.34910   0.12625   0.00000  Uiso   1.00
C195   C     0.34260   0.31465   0.00788   0.00000  Uiso   1.00
C196   C     0.27859   0.34838   0.92664   0.00000  Uiso   1.00
C197   C     0.12731   0.38074   0.76050   0.00000  Uiso   1.00
C198   C     0.70741   0.44290   0.29597   0.00000  Uiso   1.00
C199   C     0.68935   0.49232   0.31646   0.00000  Uiso   1.00
C200   C     0.73803   0.59124   0.36507   0.00000  Uiso   1.00
C201   C     0.71086   0.62208   0.37645   0.00000  Uiso   1.00
C202   C     0.78496   0.33851   0.36384   0.00000  Uiso   1.00
C203   C     0.91401   0.30809   0.45228   0.00000  Uiso   1.00
C204   C     0.96733   0.20945   0.50354   0.00000  Uiso   1.00
C205   C     0.55556   0.41488   0.16223   0.00000  Uiso   1.00
C206   C     0.49175   0.44866   0.08116   0.00000  Uiso   1.00
C207   C     0.35195   0.41428   0.96268   0.00000  Uiso   1.00
H208   H     0.51560   0.27057   0.20173   0.00000  Uiso   1.00
H209   H     0.53222   0.40631   0.26395   0.00000  Uiso   1.00
H210   H     0.70817   0.12321   0.35113   0.00000  Uiso   1.00
H211   H     0.28597   0.26375   0.98007   0.00000  Uiso   1.00
H212   H     0.58299   0.58579   0.34884   0.00000  Uiso   1.00
H213   H     0.95396   0.98884   0.53264   0.00000  Uiso   1.00
H214   H     0.06367   0.28519   0.75018   0.00000  Uiso   1.00
H215   H     0.76442   0.49412   0.32398   0.00000  Uiso   1.00
H216   H     0.79469   0.64213   0.39291   0.00000  Uiso   1.00
H217   H     0.97064   0.35902   0.48009   0.00000  Uiso   1.00
H218   H     0.54845   0.49956   0.10903   0.00000  Uiso   1.00
H219   H     0.79603   0.77719   0.45351   0.00000  Uiso   1.00
H220   H     0.16700   0.18023   0.63731   0.00000  Uiso   1.00
H221   H     0.27671   0.47659   0.85486   0.00000  Uiso   1.00
O222   O     0.70498   0.77481   0.44435   0.00000  Uiso   1.00
O223   O     0.19165   0.99162   0.68547   0.00000  Uiso   1.00
O224   O     0.02363   0.38044   0.65891   0.00000  Uiso   1.00
N225   N     0.62895   0.61053   0.36399   0.00000  Uiso   1.00
N226   N     0.97579   0.05242   0.53585   0.00000  Uiso   1.00
N227   N     0.14347   0.32947   0.80433   0.00000  Uiso   1.00
N228   N     0.74358   0.71352   0.42031   0.00000  Uiso   1.00
N229   N     0.09043   0.15541   0.59217   0.00000  Uiso   1.00
N230   N     0.25810   0.43246   0.86065   0.00000  Uiso   1.00
C231   C     0.10337   0.67310   0.27157   0.00000  Uiso   1.00
C232   C     0.02417   0.57009   0.20113   0.00000  Uiso   1.00
C233   C     0.89316   0.54000   0.11024   0.00000  Uiso   1.00
C234   C     0.83855   0.44270   0.05686   0.00000  Uiso   1.00
C235   C     0.70430   0.29264   0.94193   0.00000  Uiso   1.00
C236   C     0.12559   0.72505   0.25494   0.00000  Uiso   1.00
C237   C     0.07989   0.82525   0.20930   0.00000  Uiso   1.00
C238   C     0.11067   0.85839   0.20123   0.00000  Uiso   1.00
C239   C     0.13399   0.94894   0.16991   0.00000  Uiso   1.00
C240   C     0.25351   0.64240   0.40443   0.00000  Uiso   1.00
C241   C     0.31537   0.67314   0.48450   0.00000  Uiso   1.00
C242   C     0.45387   0.63671   0.60231   0.00000  Uiso   1.00
C243   C     0.67579   0.59893   0.80310   0.00000  Uiso   1.00
C244   C     0.23934   0.55380   0.33841   0.00000  Uiso   1.00
C245   C     0.09802   0.50530   0.23744   0.00000  Uiso   1.00
C246   C     0.04360   0.40801   0.18419   0.00000  Uiso   1.00
C247   C     0.91254   0.37778   0.09323   0.00000  Uiso   1.00
C248   C     0.19945   0.66026   0.29124   0.00000  Uiso   1.00
C249   C     0.23032   0.69326   0.28324   0.00000  Uiso   1.00
C250   C     0.18466   0.79348   0.23760   0.00000  Uiso   1.00
C251   C     0.32736   0.57760   0.44074   0.00000  Uiso   1.00
C252   C     0.46580   0.54114   0.55844   0.00000  Uiso   1.00
C253   C     0.52786   0.57180   0.63868   0.00000  Uiso   1.00
H254   H     0.04587   0.72355   0.24331   0.00000  Uiso   1.00
H255   H     0.83603   0.59018   0.08217   0.00000  Uiso   1.00
H256   H     0.02275   0.87538   0.18122   0.00000  Uiso   1.00
H257   H     0.25819   0.72328   0.45638   0.00000  Uiso   1.00
H258   H     0.63594   0.41374   0.91949   0.00000  Uiso   1.00
H259   H     0.02967   0.01513   0.12840   0.00000  Uiso   1.00
H260   H     0.52615   0.69440   0.70862   0.00000  Uiso   1.00
H261   H     0.29684   0.50335   0.36667   0.00000  Uiso   1.00
H262   H     0.10078   0.35788   0.21230   0.00000  Uiso   1.00
H263   H     0.28748   0.64309   0.31135   0.00000  Uiso   1.00
H264   H     0.52292   0.49099   0.58651   0.00000  Uiso   1.00
H265   H     0.85081   0.22521   0.02511   0.00000  Uiso   1.00
H266   H     0.24455   0.82660   0.23402   0.00000  Uiso   1.00
H267   H     0.74102   0.50587   0.81423   0.00000  Uiso   1.00
O268   O     0.60984   0.22777   0.86850   0.00000  Uiso   1.00
O269   O     0.12643   0.01678   0.14259   0.00000  Uiso   1.00
O270   O     0.77779   0.59598   0.90382   0.00000  Uiso   1.00
N271   N     0.71343   0.38932   0.96555   0.00000  Uiso   1.00
N272   N     0.08153   0.95158   0.16084   0.00000  Uiso   1.00
N273   N     0.54571   0.65175   0.70331   0.00000  Uiso   1.00
N274   N     0.82905   0.28787   0.02238   0.00000  Uiso   1.00
N275   N     0.19715   0.85013   0.21768   0.00000  Uiso   1.00
N276   N     0.66133   0.55030   0.76014   0.00000  Uiso   1.00
C277   C     0.42740   0.82179   0.27027   0.00000  Uiso   1.00
C278   C     0.38388   0.92654   0.21952   0.00000  Uiso   1.00
C279   C     0.41112   0.95725   0.20821   0.00000  Uiso   1.00
C280   C     0.36249   0.05618   0.15959   0.00000  Uiso   1.00
C281   C     0.30598   0.20880   0.08620   0.00000  Uiso   1.00
C282   C     0.28827   0.77273   0.17214   0.00000  Uiso   1.00
C283   C     0.23514   0.67410   0.12100   0.00000  Uiso   1.00
C284   C     0.10603   0.64355   0.03250   0.00000  Uiso   1.00
C285   C     0.90114   0.55734   0.88562   0.00000  Uiso   1.00
C286   C     0.51766   0.84910   0.37375   0.00000  Uiso   1.00
C287   C     0.65740   0.81465   0.49212   0.00000  Uiso   1.00
C288   C     0.72141   0.84838   0.57336   0.00000  Uiso   1.00
C289   C     0.87269   0.88074   0.73950   0.00000  Uiso   1.00
C290   C     0.29259   0.94290   0.20403   0.00000  Uiso   1.00
C291   C     0.31065   0.99232   0.18354   0.00000  Uiso   1.00
C292   C     0.26197   0.09124   0.13493   0.00000  Uiso   1.00
C293   C     0.28914   0.12208   0.12355   0.00000  Uiso   1.00
C294   C     0.21504   0.83851   0.13616   0.00000  Uiso   1.00
C295   C     0.08599   0.80809   0.04772   0.00000  Uiso   1.00
C296   C     0.03267   0.70945   0.99646   0.00000  Uiso   1.00
C297   C     0.44444   0.91488   0.33777   0.00000  Uiso   1.00
C298   C     0.50825   0.94866   0.41884   0.00000  Uiso   1.00
C299   C     0.64805   0.91428   0.53732   0.00000  Uiso   1.00
H300   H     0.48440   0.77057   0.29827   0.00000  Uiso   1.00
H301   H     0.46778   0.90631   0.23605   0.00000  Uiso   1.00
H302   H     0.29183   0.62321   0.14887   0.00000  Uiso   1.00
H303   H     0.71403   0.76375   0.51993   0.00000  Uiso   1.00
H304   H     0.41701   0.08579   0.15116   0.00000  Uiso   1.00
H305   H     0.04604   0.48884   0.96736   0.00000  Uiso   1.00
H306   H     0.93633   0.78519   0.74982   0.00000  Uiso   1.00
H307   H     0.23558   0.99412   0.17602   0.00000  Uiso   1.00
H308   H     0.20531   0.14213   0.10709   0.00000  Uiso   1.00
H309   H     0.02936   0.85902   0.01991   0.00000  Uiso   1.00
H310   H     0.45155   0.99956   0.39097   0.00000  Uiso   1.00
H311   H     0.20397   0.27719   0.04649   0.00000  Uiso   1.00
H312   H     0.83300   0.68023   0.86269   0.00000  Uiso   1.00
H313   H     0.72329   0.97659   0.64514   0.00000  Uiso   1.00
O314   O     0.29502   0.27481   0.05565   0.00000  Uiso   1.00
O315   O     0.80835   0.49162   0.81453   0.00000  Uiso   1.00
O316   O     0.97637   0.88044   0.84109   0.00000  Uiso   1.00
N317   N     0.37105   0.11053   0.13601   0.00000  Uiso   1.00
N318   N     0.02421   0.55242   0.96415   0.00000  Uiso   1.00
N319   N     0.85653   0.82947   0.69567   0.00000  Uiso   1.00
N320   N     0.25642   0.21352   0.07969   0.00000  Uiso   1.00
N321   N     0.90957   0.65541   0.90783   0.00000  Uiso   1.00
N322   N     0.74190   0.93246   0.63935   0.00000  Uiso   1.00
C323   C     0.89663   0.17310   0.22843   0.00000  Uiso   1.00
C324   C     0.97583   0.07009   0.29887   0.00000  Uiso   1.00
C325   C     0.10684   0.04000   0.38976   0.00000  Uiso   1.00
C326   C     0.16145   0.94270   0.44314   0.00000  Uiso   1.00
C327   C     0.29570   0.79264   0.55807   0.00000  Uiso   1.00
C328   C     0.87441   0.22505   0.24506   0.00000  Uiso   1.00
C329   C     0.92011   0.32525   0.29070   0.00000  Uiso   1.00
C330   C     0.88933   0.35839   0.29877   0.00000  Uiso   1.00
C331   C     0.86601   0.44894   0.33009   0.00000  Uiso   1.00
C332   C     0.74649   0.14240   0.09557   0.00000  Uiso   1.00
C333   C     0.68463   0.17314   0.01550   0.00000  Uiso   1.00
C334   C     0.54613   0.13671   0.89769   0.00000  Uiso   1.00
C335   C     0.32421   0.09893   0.69690   0.00000  Uiso   1.00
C336   C     0.76066   0.05380   0.16159   0.00000  Uiso   1.00
C337   C     0.90198   0.00530   0.26256   0.00000  Uiso   1.00
C338   C     0.95640   0.90801   0.31581   0.00000  Uiso   1.00
C339   C     0.08746   0.87778   0.40677   0.00000  Uiso   1.00
C340   C     0.80055   0.16026   0.20876   0.00000  Uiso   1.00
C341   C     0.76968   0.19326   0.21676   0.00000  Uiso   1.00
C342   C     0.81534   0.29348   0.26240   0.00000  Uiso   1.00
C343   C     0.67264   0.07760   0.05926   0.00000  Uiso   1.00
C344   C     0.53420   0.04114   0.94156   0.00000  Uiso   1.00
C345   C     0.47214   0.07180   0.86132   0.00000  Uiso   1.00
H346   H     0.95413   0.22355   0.25669   0.00000  Uiso   1.00
H347   H     0.16397   0.09018   0.41783   0.00000  Uiso   1.00
H348   H     0.97725   0.37538   0.31878   0.00000  Uiso   1.00
H349   H     0.74181   0.22328   0.04362   0.00000  Uiso   1.00
H350   H     0.36406   0.91374   0.58051   0.00000  Uiso   1.00
H351   H     0.97033   0.51513   0.37160   0.00000  Uiso   1.00
H352   H     0.47385   0.19440   0.79138   0.00000  Uiso   1.00
H353   H     0.70316   0.00335   0.13333   0.00000  Uiso   1.00
H354   H     0.89922   0.85788   0.28770   0.00000  Uiso   1.00
H355   H     0.71252   0.14309   0.18865   0.00000  Uiso   1.00
H356   H     0.47708   0.99099   0.91349   0.00000  Uiso   1.00
H357   H     0.14919   0.72521   0.47489   0.00000  Uiso   1.00
H358   H     0.75545   0.32660   0.26598   0.00000  Uiso   1.00
H359   H     0.25898   0.00587   0.68577   0.00000  Uiso   1.00
O360   O     0.39016   0.72777   0.63150   0.00000  Uiso   1.00
O361   O     0.87357   0.51678   0.35741   0.00000  Uiso   1.00
O362   O     0.22221   0.09598   0.59618   0.00000  Uiso   1.00
N363   N     0.28657   0.88932   0.53445   0.00000  Uiso   1.00
N364   N     0.91847   0.45158   0.33916   0.00000  Uiso   1.00
N365   N     0.45429   0.15175   0.79669   0.00000  Uiso   1.00
N366   N     0.17095   0.78787   0.47762   0.00000  Uiso   1.00
N367   N     0.80285   0.35013   0.28232   0.00000  Uiso   1.00
N368   N     0.33867   0.05030   0.73986   0.00000  Uiso   1.00
