data_job_06243
_audit_creation_date              2018-12-19
_audit_creation_method            'Materials Studio'
_symmetry_space_group_name_H-M    'P1'
_symmetry_Int_Tables_number       1
_symmetry_cell_setting            triclinic
loop_
_symmetry_equiv_pos_as_xyz
  x,y,z
_cell_length_a                    13.3741
_cell_length_b                    21.0204
_cell_length_c                    21.2001
_cell_angle_alpha                 115.6660
_cell_angle_beta                  77.8119
_cell_angle_gamma                 78.9295
loop_
_atom_site_label
_atom_site_type_symbol
_atom_site_fract_x
_atom_site_fract_y
_atom_site_fract_z
_atom_site_U_iso_or_equiv
_atom_site_adp_type
_atom_site_occupancy
C1     C     0.60852   0.32511   0.49475   0.00000  Uiso   1.00
C2     C     0.56853   0.37515   0.57880   0.00000  Uiso   1.00
C3     C     0.61768   0.42342   0.61875   0.00000  Uiso   1.00
C4     C     0.56850   0.46437   0.69527   0.00000  Uiso   1.00
C5     C     0.52086   0.54312   0.82042   0.00000  Uiso   1.00
C6     C     0.62220   0.24597   0.48094   0.00000  Uiso   1.00
C7     C     0.71648   0.18563   0.43860   0.00000  Uiso   1.00
C8     C     0.71248   0.11783   0.43273   0.00000  Uiso   1.00
C9     C     0.74816   0.99602   0.40591   0.00000  Uiso   1.00
C10    C     0.51509   0.34523   0.46895   0.00000  Uiso   1.00
C11    C     0.51932   0.36833   0.41652   0.00000  Uiso   1.00
C12    C     0.42514   0.38409   0.40055   0.00000  Uiso   1.00
C13    C     0.29451   0.41639   0.35512   0.00000  Uiso   1.00
C14    C     0.43377   0.31200   0.55960   0.00000  Uiso   1.00
C15    C     0.47361   0.36802   0.61402   0.00000  Uiso   1.00
C16    C     0.42434   0.40892   0.69050   0.00000  Uiso   1.00
C17    C     0.47341   0.45724   0.73056   0.00000  Uiso   1.00
C18    C     0.52729   0.23885   0.51616   0.00000  Uiso   1.00
C19    C     0.52314   0.17112   0.51035   0.00000  Uiso   1.00
C20    C     0.61739   0.11070   0.46802   0.00000  Uiso   1.00
C21    C     0.42017   0.33811   0.50418   0.00000  Uiso   1.00
C22    C     0.32597   0.35383   0.48828   0.00000  Uiso   1.00
C23    C     0.33005   0.37695   0.43584   0.00000  Uiso   1.00
H24    H     0.68242   0.33065   0.46732   0.00000  Uiso   1.00
H25    H     0.69114   0.42891   0.59146   0.00000  Uiso   1.00
H26    H     0.78992   0.19116   0.41134   0.00000  Uiso   1.00
H27    H     0.59278   0.37383   0.38927   0.00000  Uiso   1.00
H28    H     0.65897   0.53468   0.74464   0.00000  Uiso   1.00
H29    H     0.86725   0.03336   0.36481   0.00000  Uiso   1.00
H30    H     0.45154   0.41857   0.31828   0.00000  Uiso   1.00
H31    H     0.35987   0.30646   0.58703   0.00000  Uiso   1.00
H32    H     0.35088   0.40339   0.71775   0.00000  Uiso   1.00
H33    H     0.44967   0.16564   0.53762   0.00000  Uiso   1.00
H34    H     0.25253   0.34831   0.51555   0.00000  Uiso   1.00
H35    H     0.38281   0.51397   0.84713   0.00000  Uiso   1.00
H36    H     0.59109   0.01265   0.46730   0.00000  Uiso   1.00
H37    H     0.17538   0.39786   0.42077   0.00000  Uiso   1.00
O38    O     0.52082   0.58851   0.87972   0.00000  Uiso   1.00
O39    O     0.79406   0.93080   0.38139   0.00000  Uiso   1.00
O40    O     0.24867   0.43618   0.32034   0.00000  Uiso   1.00
N41    N     0.59519   0.51652   0.75082   0.00000  Uiso   1.00
N42    N     0.78993   0.04781   0.39571   0.00000  Uiso   1.00
N43    N     0.40129   0.40793   0.35220   0.00000  Uiso   1.00
N44    N     0.44659   0.50537   0.80597   0.00000  Uiso   1.00
N45    N     0.64133   0.03667   0.45086   0.00000  Uiso   1.00
N46    N     0.25269   0.39679   0.40735   0.00000  Uiso   1.00
C47    C     0.10296   0.50551   0.83000   0.00000  Uiso   1.00
C48    C     0.14604   0.42111   0.79625   0.00000  Uiso   1.00
C49    C     0.23418   0.38224   0.80442   0.00000  Uiso   1.00
C50    C     0.26074   0.30517   0.76915   0.00000  Uiso   1.00
C51    C     0.33673   0.17970   0.72310   0.00000  Uiso   1.00
C52    C     0.10325   0.51967   0.76523   0.00000  Uiso   1.00
C53    C     0.15540   0.56367   0.74734   0.00000  Uiso   1.00
C54    C     0.14592   0.56957   0.68596   0.00000  Uiso   1.00
C55    C     0.15542   0.59716   0.59179   0.00000  Uiso   1.00
C56    C     0.98449   0.52932   0.87561   0.00000  Uiso   1.00
C57    C     0.93677   0.58147   0.95052   0.00000  Uiso   1.00
C58    C     0.82729   0.59551   0.98207   0.00000  Uiso   1.00
C59    C     0.65239   0.63810   0.05928   0.00000  Uiso   1.00
C60    C     0.99339   0.43775   0.75283   0.00000  Uiso   1.00
C61    C     0.08653   0.38431   0.75434   0.00000  Uiso   1.00
C62    C     0.11296   0.30727   0.71905   0.00000  Uiso   1.00
C63    C     0.20112   0.26829   0.72717   0.00000  Uiso   1.00
C64    C     0.04375   0.48286   0.72332   0.00000  Uiso   1.00
C65    C     0.03418   0.48870   0.66196   0.00000  Uiso   1.00
C66    C     0.08630   0.53270   0.64397   0.00000  Uiso   1.00
C67    C     0.92498   0.49252   0.83370   0.00000  Uiso   1.00
C68    C     0.81555   0.50649   0.86515   0.00000  Uiso   1.00
C69    C     0.76767   0.55864   0.94008   0.00000  Uiso   1.00
H70    H     0.14929   0.53417   0.86262   0.00000  Uiso   1.00
H71    H     0.28022   0.41074   0.83685   0.00000  Uiso   1.00
H72    H     0.20144   0.59215   0.77978   0.00000  Uiso   1.00
H73    H     0.98285   0.60994   0.98293   0.00000  Uiso   1.00
H74    H     0.39916   0.25767   0.78978   0.00000  Uiso   1.00
H75    H     0.23302   0.64020   0.66946   0.00000  Uiso   1.00
H76    H     0.77207   0.67771   0.09784   0.00000  Uiso   1.00
H77    H     0.94706   0.40910   0.72020   0.00000  Uiso   1.00
H78    H     0.06689   0.27880   0.68662   0.00000  Uiso   1.00
H79    H     0.98812   0.46021   0.62955   0.00000  Uiso   1.00
H80    H     0.76952   0.47800   0.83270   0.00000  Uiso   1.00
H81    H     0.22602   0.15058   0.66784   0.00000  Uiso   1.00
H82    H     0.05988   0.53312   0.54752   0.00000  Uiso   1.00
H83    H     0.59893   0.57062   0.97590   0.00000  Uiso   1.00
O84    O     0.39509   0.12067   0.70927   0.00000  Uiso   1.00
O85    O     0.17711   0.62255   0.55142   0.00000  Uiso   1.00
O86    O     0.57236   0.67175   0.11345   0.00000  Uiso   1.00
N87    N     0.34195   0.25035   0.76570   0.00000  Uiso   1.00
N88    N     0.18664   0.60798   0.65320   0.00000  Uiso   1.00
N89    N     0.75568   0.64307   0.05370   0.00000  Uiso   1.00
N90    N     0.24878   0.19273   0.70009   0.00000  Uiso   1.00
N91    N     0.09347   0.55036   0.58759   0.00000  Uiso   1.00
N92    N     0.66252   0.58544   0.98809   0.00000  Uiso   1.00
C93    C     0.93253   0.17059   0.67582   0.00000  Uiso   1.00
C94    C     0.94238   0.20513   0.62559   0.00000  Uiso   1.00
C95    C     0.03824   0.19877   0.57887   0.00000  Uiso   1.00
C96    C     0.03012   0.23450   0.53744   0.00000  Uiso   1.00
C97    C     0.06071   0.28198   0.45869   0.00000  Uiso   1.00
C98    C     0.86875   0.23493   0.75409   0.00000  Uiso   1.00
C99    C     0.90271   0.25362   0.81541   0.00000  Uiso   1.00
C100   C     0.83260   0.31443   0.88215   0.00000  Uiso   1.00
C101   C     0.74884   0.40815   0.00291   0.00000  Uiso   1.00
C102   C     0.85974   0.12294   0.65428   0.00000  Uiso   1.00
C103   C     0.88610   0.04748   0.63170   0.00000  Uiso   1.00
C104   C     0.80839   0.01400   0.61443   0.00000  Uiso   1.00
C105   C     0.71064   0.93384   0.58022   0.00000  Uiso   1.00
C106   C     0.74764   0.24534   0.68530   0.00000  Uiso   1.00
C107   C     0.84196   0.24573   0.63074   0.00000  Uiso   1.00
C108   C     0.83369   0.28147   0.58937   0.00000  Uiso   1.00
C109   C     0.92952   0.27516   0.54260   0.00000  Uiso   1.00
C110   C     0.76833   0.27553   0.75924   0.00000  Uiso   1.00
C111   C     0.69815   0.33632   0.82591   0.00000  Uiso   1.00
C112   C     0.73199   0.35510   0.88732   0.00000  Uiso   1.00
C113   C     0.75932   0.16354   0.65943   0.00000  Uiso   1.00
C114   C     0.68155   0.13017   0.64219   0.00000  Uiso   1.00
C115   C     0.70779   0.05467   0.61959   0.00000  Uiso   1.00
H116   H     0.01070   0.13899   0.67181   0.00000  Uiso   1.00
H117   H     0.11594   0.16736   0.57491   0.00000  Uiso   1.00
H118   H     0.98042   0.22219   0.81141   0.00000  Uiso   1.00
H119   H     0.96382   0.01608   0.62772   0.00000  Uiso   1.00
H120   H     0.18833   0.21673   0.46976   0.00000  Uiso   1.00
H121   H     0.90256   0.33234   0.96845   0.00000  Uiso   1.00
H122   H     0.86756   0.89772   0.58112   0.00000  Uiso   1.00
H123   H     0.66945   0.27695   0.68932   0.00000  Uiso   1.00
H124   H     0.75597   0.31288   0.59337   0.00000  Uiso   1.00
H125   H     0.62044   0.36772   0.82987   0.00000  Uiso   1.00
H126   H     0.60385   0.16161   0.64619   0.00000  Uiso   1.00
H127   H     0.89616   0.33485   0.48475   0.00000  Uiso   1.00
H128   H     0.61039   0.45046   0.98344   0.00000  Uiso   1.00
H129   H     0.57539   0.01583   0.59610   0.00000  Uiso   1.00
O130   O     0.10532   0.29696   0.41384   0.00000  Uiso   1.00
O131   O     0.73039   0.44863   0.06810   0.00000  Uiso   1.00
O132   O     0.68447   0.87841   0.55992   0.00000  Uiso   1.00
N133   N     0.10770   0.23959   0.48645   0.00000  Uiso   1.00
N134   N     0.84052   0.34768   0.95269   0.00000  Uiso   1.00
N135   N     0.80779   0.94135   0.59058   0.00000  Uiso   1.00
N136   N     0.95048   0.30314   0.49451   0.00000  Uiso   1.00
N137   N     0.68331   0.41124   0.96075   0.00000  Uiso   1.00
N138   N     0.65058   0.00490   0.59864   0.00000  Uiso   1.00
C139   C     0.39148   0.67489   0.50525   0.00000  Uiso   1.00
C140   C     0.43147   0.62485   0.42120   0.00000  Uiso   1.00
C141   C     0.38232   0.57658   0.38125   0.00000  Uiso   1.00
C142   C     0.43150   0.53563   0.30473   0.00000  Uiso   1.00
C143   C     0.47914   0.45688   0.17958   0.00000  Uiso   1.00
C144   C     0.37780   0.75403   0.51906   0.00000  Uiso   1.00
C145   C     0.28352   0.81437   0.56140   0.00000  Uiso   1.00
C146   C     0.28752   0.88217   0.56727   0.00000  Uiso   1.00
C147   C     0.25184   0.00398   0.59409   0.00000  Uiso   1.00
C148   C     0.48491   0.65477   0.53105   0.00000  Uiso   1.00
C149   C     0.48068   0.63167   0.58348   0.00000  Uiso   1.00
C150   C     0.57486   0.61591   0.59945   0.00000  Uiso   1.00
C151   C     0.70549   0.58361   0.64488   0.00000  Uiso   1.00
C152   C     0.56623   0.68800   0.44040   0.00000  Uiso   1.00
C153   C     0.52639   0.63198   0.38598   0.00000  Uiso   1.00
C154   C     0.57566   0.59108   0.30950   0.00000  Uiso   1.00
C155   C     0.52659   0.54276   0.26944   0.00000  Uiso   1.00
C156   C     0.47271   0.76115   0.48384   0.00000  Uiso   1.00
C157   C     0.47686   0.82888   0.48965   0.00000  Uiso   1.00
C158   C     0.38261   0.88930   0.53198   0.00000  Uiso   1.00
C159   C     0.57983   0.66189   0.49582   0.00000  Uiso   1.00
C160   C     0.67403   0.64617   0.51172   0.00000  Uiso   1.00
C161   C     0.66995   0.62305   0.56416   0.00000  Uiso   1.00
H162   H     0.31758   0.66935   0.53268   0.00000  Uiso   1.00
H163   H     0.30886   0.57109   0.40854   0.00000  Uiso   1.00
H164   H     0.21008   0.80885   0.58866   0.00000  Uiso   1.00
H165   H     0.40722   0.62617   0.61073   0.00000  Uiso   1.00
H166   H     0.34103   0.46532   0.25536   0.00000  Uiso   1.00
H167   H     0.13275   0.96664   0.63519   0.00000  Uiso   1.00
H168   H     0.54846   0.58143   0.68172   0.00000  Uiso   1.00
H169   H     0.64013   0.69354   0.41297   0.00000  Uiso   1.00
H170   H     0.64912   0.59661   0.28225   0.00000  Uiso   1.00
H171   H     0.55033   0.83436   0.46238   0.00000  Uiso   1.00
H172   H     0.74747   0.65169   0.48445   0.00000  Uiso   1.00
H173   H     0.61719   0.48603   0.15287   0.00000  Uiso   1.00
H174   H     0.40891   0.98736   0.53270   0.00000  Uiso   1.00
H175   H     0.82462   0.60214   0.57923   0.00000  Uiso   1.00
O176   O     0.47918   0.41149   0.12028   0.00000  Uiso   1.00
O177   O     0.20594   0.06920   0.61861   0.00000  Uiso   1.00
O178   O     0.75133   0.56382   0.67966   0.00000  Uiso   1.00
N179   N     0.40481   0.48348   0.24918   0.00000  Uiso   1.00
N180   N     0.21007   0.95219   0.60429   0.00000  Uiso   1.00
N181   N     0.59871   0.59207   0.64780   0.00000  Uiso   1.00
N182   N     0.55341   0.49463   0.19403   0.00000  Uiso   1.00
N183   N     0.35867   0.96333   0.54914   0.00000  Uiso   1.00
N184   N     0.74731   0.60321   0.59265   0.00000  Uiso   1.00
C185   C     0.89704   0.49449   0.17000   0.00000  Uiso   1.00
C186   C     0.85396   0.57889   0.20375   0.00000  Uiso   1.00
C187   C     0.76582   0.61776   0.19558   0.00000  Uiso   1.00
C188   C     0.73926   0.69483   0.23085   0.00000  Uiso   1.00
C189   C     0.66327   0.82030   0.27690   0.00000  Uiso   1.00
C190   C     0.89675   0.48034   0.23477   0.00000  Uiso   1.00
C191   C     0.84460   0.43633   0.25266   0.00000  Uiso   1.00
C192   C     0.85408   0.43043   0.31404   0.00000  Uiso   1.00
C193   C     0.84458   0.40284   0.40821   0.00000  Uiso   1.00
C194   C     0.01551   0.47068   0.12439   0.00000  Uiso   1.00
C195   C     0.06323   0.41853   0.04948   0.00000  Uiso   1.00
C196   C     0.17271   0.40449   0.01793   0.00000  Uiso   1.00
C197   C     0.34761   0.36190   0.94072   0.00000  Uiso   1.00
C198   C     0.00661   0.56225   0.24717   0.00000  Uiso   1.00
C199   C     0.91347   0.61570   0.24566   0.00000  Uiso   1.00
C200   C     0.88704   0.69273   0.28095   0.00000  Uiso   1.00
C201   C     0.79888   0.73171   0.27283   0.00000  Uiso   1.00
C202   C     0.95625   0.51714   0.27668   0.00000  Uiso   1.00
C203   C     0.96582   0.51130   0.33804   0.00000  Uiso   1.00
C204   C     0.91370   0.46730   0.35603   0.00000  Uiso   1.00
C205   C     0.07502   0.50748   0.16630   0.00000  Uiso   1.00
C206   C     0.18445   0.49351   0.13485   0.00000  Uiso   1.00
C207   C     0.23233   0.44136   0.05992   0.00000  Uiso   1.00
H208   H     0.85071   0.46583   0.13738   0.00000  Uiso   1.00
H209   H     0.71978   0.58926   0.16315   0.00000  Uiso   1.00
H210   H     0.79856   0.40785   0.22022   0.00000  Uiso   1.00
H211   H     0.01715   0.39006   0.01707   0.00000  Uiso   1.00
H212   H     0.60084   0.74233   0.21022   0.00000  Uiso   1.00
H213   H     0.76698   0.35980   0.33054   0.00000  Uiso   1.00
H214   H     0.22793   0.32229   0.90216   0.00000  Uiso   1.00
H215   H     0.05294   0.59090   0.27980   0.00000  Uiso   1.00
H216   H     0.93311   0.72120   0.31338   0.00000  Uiso   1.00
H217   H     0.01188   0.53979   0.37045   0.00000  Uiso   1.00
H218   H     0.23048   0.52200   0.16730   0.00000  Uiso   1.00
H219   H     0.77398   0.84942   0.33216   0.00000  Uiso   1.00
H220   H     0.94012   0.46688   0.45248   0.00000  Uiso   1.00
H221   H     0.40107   0.42938   0.02410   0.00000  Uiso   1.00
O222   O     0.60491   0.87933   0.29073   0.00000  Uiso   1.00
O223   O     0.82289   0.37745   0.44858   0.00000  Uiso   1.00
O224   O     0.42764   0.32825   0.88655   0.00000  Uiso   1.00
N225   N     0.65805   0.74965   0.23430   0.00000  Uiso   1.00
N226   N     0.81336   0.39202   0.34680   0.00000  Uiso   1.00
N227   N     0.24432   0.35693   0.94630   0.00000  Uiso   1.00
N228   N     0.75122   0.80728   0.29991   0.00000  Uiso   1.00
N229   N     0.90653   0.44964   0.41241   0.00000  Uiso   1.00
N230   N     0.33748   0.41456   0.01191   0.00000  Uiso   1.00
C231   C     0.06747   0.82941   0.32418   0.00000  Uiso   1.00
C232   C     0.05762   0.79487   0.37441   0.00000  Uiso   1.00
C233   C     0.96176   0.80123   0.42113   0.00000  Uiso   1.00
C234   C     0.96988   0.76550   0.46256   0.00000  Uiso   1.00
C235   C     0.93929   0.71802   0.54131   0.00000  Uiso   1.00
C236   C     0.13125   0.76507   0.24591   0.00000  Uiso   1.00
C237   C     0.09729   0.74638   0.18459   0.00000  Uiso   1.00
C238   C     0.16740   0.68557   0.11785   0.00000  Uiso   1.00
C239   C     0.25116   0.59185   0.99709   0.00000  Uiso   1.00
C240   C     0.14026   0.87706   0.34572   0.00000  Uiso   1.00
C241   C     0.11390   0.95252   0.36830   0.00000  Uiso   1.00
C242   C     0.19161   0.98600   0.38557   0.00000  Uiso   1.00
C243   C     0.28936   0.06616   0.41978   0.00000  Uiso   1.00
C244   C     0.25236   0.75466   0.31470   0.00000  Uiso   1.00
C245   C     0.15804   0.75427   0.36926   0.00000  Uiso   1.00
C246   C     0.16631   0.71853   0.41063   0.00000  Uiso   1.00
C247   C     0.07048   0.72484   0.45740   0.00000  Uiso   1.00
C248   C     0.23167   0.72447   0.24076   0.00000  Uiso   1.00
C249   C     0.30185   0.66368   0.17409   0.00000  Uiso   1.00
C250   C     0.26801   0.64490   0.11268   0.00000  Uiso   1.00
C251   C     0.24068   0.83646   0.34057   0.00000  Uiso   1.00
C252   C     0.31845   0.86983   0.35781   0.00000  Uiso   1.00
C253   C     0.29221   0.94533   0.38041   0.00000  Uiso   1.00
H254   H     0.98930   0.86101   0.32819   0.00000  Uiso   1.00
H255   H     0.88406   0.83264   0.42509   0.00000  Uiso   1.00
H256   H     0.01958   0.77781   0.18859   0.00000  Uiso   1.00
H257   H     0.03618   0.98392   0.37228   0.00000  Uiso   1.00
H258   H     0.81167   0.78327   0.53024   0.00000  Uiso   1.00
H259   H     0.09744   0.66766   0.03155   0.00000  Uiso   1.00
H260   H     0.13244   0.10228   0.41888   0.00000  Uiso   1.00
H261   H     0.33055   0.72305   0.31068   0.00000  Uiso   1.00
H262   H     0.24403   0.68712   0.40663   0.00000  Uiso   1.00
H263   H     0.37955   0.63228   0.17013   0.00000  Uiso   1.00
H264   H     0.39615   0.83839   0.35381   0.00000  Uiso   1.00
H265   H     0.10384   0.66515   0.51525   0.00000  Uiso   1.00
H266   H     0.38961   0.54954   0.01656   0.00000  Uiso   1.00
H267   H     0.42461   0.98417   0.40390   0.00000  Uiso   1.00
O268   O     0.89468   0.70304   0.58616   0.00000  Uiso   1.00
O269   O     0.26961   0.55137   0.93190   0.00000  Uiso   1.00
O270   O     0.31553   0.12159   0.44008   0.00000  Uiso   1.00
N271   N     0.89230   0.76041   0.51355   0.00000  Uiso   1.00
N272   N     0.15947   0.65232   0.04731   0.00000  Uiso   1.00
N273   N     0.19221   0.05865   0.40942   0.00000  Uiso   1.00
N274   N     0.04952   0.69686   0.50549   0.00000  Uiso   1.00
N275   N     0.31669   0.58876   0.03925   0.00000  Uiso   1.00
N276   N     0.34942   0.99510   0.40136   0.00000  Uiso   1.00
