data_job_06142
_audit_creation_date              2018-12-19
_audit_creation_method            'Materials Studio'
_symmetry_space_group_name_H-M    'P1'
_symmetry_Int_Tables_number       1
_symmetry_cell_setting            triclinic
loop_
_symmetry_equiv_pos_as_xyz
  x,y,z
_cell_length_a                    17.3488
_cell_length_b                    15.4673
_cell_length_c                    14.9148
_cell_angle_alpha                 83.1438
_cell_angle_beta                  81.4837
_cell_angle_gamma                 82.4864
loop_
_atom_site_label
_atom_site_type_symbol
_atom_site_fract_x
_atom_site_fract_y
_atom_site_fract_z
_atom_site_U_iso_or_equiv
_atom_site_adp_type
_atom_site_occupancy
C1     C     0.71567   0.64475   0.01577   0.00000  Uiso   1.00
C2     C     0.76918   0.68484   0.06773   0.00000  Uiso   1.00
C3     C     0.78044   0.77277   0.05971   0.00000  Uiso   1.00
C4     C     0.83183   0.79636   0.11313   0.00000  Uiso   1.00
C5     C     0.90907   0.86806   0.18476   0.00000  Uiso   1.00
C6     C     0.76750   0.57279   0.96650   0.00000  Uiso   1.00
C7     C     0.77734   0.56651   0.87335   0.00000  Uiso   1.00
C8     C     0.82731   0.49576   0.84156   0.00000  Uiso   1.00
C9     C     0.90190   0.39347   0.75602   0.00000  Uiso   1.00
C10    C     0.65913   0.59816   0.08789   0.00000  Uiso   1.00
C11    C     0.57786   0.61319   0.09680   0.00000  Uiso   1.00
C12    C     0.53658   0.56379   0.16720   0.00000  Uiso   1.00
C13    C     0.44291   0.50090   0.27014   0.00000  Uiso   1.00
C14    C     0.78689   0.53028   0.12493   0.00000  Uiso   1.00
C15    C     0.80787   0.62266   0.12702   0.00000  Uiso   1.00
C16    C     0.85925   0.64612   0.18047   0.00000  Uiso   1.00
C17    C     0.87058   0.73407   0.17253   0.00000  Uiso   1.00
C18    C     0.80619   0.51062   0.02578   0.00000  Uiso   1.00
C19    C     0.85615   0.43986   0.99412   0.00000  Uiso   1.00
C20    C     0.86607   0.43347   0.90095   0.00000  Uiso   1.00
C21    C     0.69782   0.53599   0.14718   0.00000  Uiso   1.00
C22    C     0.65666   0.48655   0.21757   0.00000  Uiso   1.00
C23    C     0.57534   0.50150   0.22659   0.00000  Uiso   1.00
H24    H     0.68555   0.69315   0.96961   0.00000  Uiso   1.00
H25    H     0.75050   0.82087   0.01381   0.00000  Uiso   1.00
H26    H     0.74739   0.61463   0.82749   0.00000  Uiso   1.00
H27    H     0.54794   0.66131   0.05091   0.00000  Uiso   1.00
H28    H     0.83959   0.93504   0.08894   0.00000  Uiso   1.00
H29    H     0.83302   0.50016   0.69607   0.00000  Uiso   1.00
H30    H     0.41243   0.59860   0.16718   0.00000  Uiso   1.00
H31    H     0.81701   0.48187   0.17109   0.00000  Uiso   1.00
H32    H     0.88918   0.59799   0.22635   0.00000  Uiso   1.00
H33    H     0.88607   0.39175   0.04002   0.00000  Uiso   1.00
H34    H     0.68662   0.43844   0.26344   0.00000  Uiso   1.00
H35    H     0.95215   0.75414   0.26143   0.00000  Uiso   1.00
H36    H     0.94558   0.31926   0.86857   0.00000  Uiso   1.00
H37    H     0.52499   0.41771   0.33968   0.00000  Uiso   1.00
O38    O     0.94099   0.92479   0.20788   0.00000  Uiso   1.00
O39    O     0.93236   0.35423   0.69246   0.00000  Uiso   1.00
O40    O     0.38056   0.48339   0.31055   0.00000  Uiso   1.00
N41    N     0.85617   0.87653   0.12196   0.00000  Uiso   1.00
N42    N     0.85004   0.46995   0.75466   0.00000  Uiso   1.00
N43    N     0.45682   0.56197   0.19509   0.00000  Uiso   1.00
N44    N     0.91673   0.77919   0.21478   0.00000  Uiso   1.00
N45    N     0.91060   0.37261   0.84748   0.00000  Uiso   1.00
N46    N     0.51739   0.46463   0.28791   0.00000  Uiso   1.00
C47    C     0.01028   0.70016   0.64112   0.00000  Uiso   1.00
C48    C     0.05658   0.75932   0.68204   0.00000  Uiso   1.00
C49    C     0.04977   0.77175   0.77362   0.00000  Uiso   1.00
C50    C     0.09731   0.82857   0.79735   0.00000  Uiso   1.00
C51    C     0.16118   0.91395   0.87085   0.00000  Uiso   1.00
C52    C     0.96933   0.75857   0.56835   0.00000  Uiso   1.00
C53    C     0.88918   0.77036   0.56435   0.00000  Uiso   1.00
C54    C     0.86327   0.82654   0.49237   0.00000  Uiso   1.00
C55    C     0.79171   0.91072   0.38933   0.00000  Uiso   1.00
C56    C     0.07108   0.63658   0.59023   0.00000  Uiso   1.00
C57    C     0.07646   0.54580   0.60461   0.00000  Uiso   1.00
C58    C     0.13621   0.49927   0.55103   0.00000  Uiso   1.00
C59    C     0.22261   0.39403   0.48198   0.00000  Uiso   1.00
C60    C     0.10680   0.77894   0.52039   0.00000  Uiso   1.00
C61    C     0.10899   0.80211   0.61646   0.00000  Uiso   1.00
C62    C     0.15655   0.85892   0.64005   0.00000  Uiso   1.00
C63    C     0.14983   0.87143   0.73165   0.00000  Uiso   1.00
C64    C     0.02175   0.80136   0.50278   0.00000  Uiso   1.00
C65    C     0.99596   0.85753   0.43078   0.00000  Uiso   1.00
C66    C     0.91579   0.86941   0.42667   0.00000  Uiso   1.00
C67    C     0.12350   0.67937   0.52466   0.00000  Uiso   1.00
C68    C     0.18324   0.63297   0.47104   0.00000  Uiso   1.00
C69    C     0.18872   0.54214   0.48534   0.00000  Uiso   1.00
H70    H     0.96947   0.66684   0.69217   0.00000  Uiso   1.00
H71    H     0.00919   0.73863   0.82435   0.00000  Uiso   1.00
H72    H     0.84863   0.73723   0.61510   0.00000  Uiso   1.00
H73    H     0.03588   0.51271   0.65536   0.00000  Uiso   1.00
H74    H     0.07634   0.83711   0.94197   0.00000  Uiso   1.00
H75    H     0.73777   0.83415   0.50075   0.00000  Uiso   1.00
H76    H     0.13264   0.36069   0.58564   0.00000  Uiso   1.00
H77    H     0.14761   0.81226   0.46933   0.00000  Uiso   1.00
H78    H     0.19711   0.89203   0.58929   0.00000  Uiso   1.00
H79    H     0.03654   0.89063   0.38004   0.00000  Uiso   1.00
H80    H     0.22380   0.66611   0.42030   0.00000  Uiso   1.00
H81    H     0.22885   0.96162   0.75118   0.00000  Uiso   1.00
H82    H     0.89029   0.95865   0.30996   0.00000  Uiso   1.00
H83    H     0.28515   0.48519   0.39485   0.00000  Uiso   1.00
O84    O     0.18193   0.94924   0.92950   0.00000  Uiso   1.00
O85    O     0.73775   0.94533   0.35063   0.00000  Uiso   1.00
O86    O     0.25580   0.32417   0.46201   0.00000  Uiso   1.00
N87    N     0.10545   0.85546   0.88061   0.00000  Uiso   1.00
N88    N     0.78891   0.85269   0.46810   0.00000  Uiso   1.00
N89    N     0.15806   0.41005   0.54745   0.00000  Uiso   1.00
N90    N     0.18752   0.92245   0.77795   0.00000  Uiso   1.00
N91    N     0.87098   0.91969   0.36544   0.00000  Uiso   1.00
N92    N     0.24013   0.47704   0.44479   0.00000  Uiso   1.00
C93    C     0.64452   0.01081   0.69533   0.00000  Uiso   1.00
C94    C     0.68104   0.06197   0.75623   0.00000  Uiso   1.00
C95    C     0.75992   0.05357   0.76669   0.00000  Uiso   1.00
C96    C     0.78162   0.10626   0.82561   0.00000  Uiso   1.00
C97    C     0.84671   0.17670   0.91310   0.00000  Uiso   1.00
C98    C     0.58041   0.96562   0.75732   0.00000  Uiso   1.00
C99    C     0.57467   0.87621   0.76869   0.00000  Uiso   1.00
C100   C     0.51166   0.84779   0.82852   0.00000  Uiso   1.00
C101   C     0.42049   0.76865   0.91765   0.00000  Uiso   1.00
C102   C     0.60242   0.07921   0.63141   0.00000  Uiso   1.00
C103   C     0.61518   0.08531   0.53690   0.00000  Uiso   1.00
C104   C     0.57068   0.15252   0.49072   0.00000  Uiso   1.00
C105   C     0.51368   0.24975   0.38435   0.00000  Uiso   1.00
C106   C     0.54280   0.11933   0.78137   0.00000  Uiso   1.00
C107   C     0.62578   0.12091   0.80296   0.00000  Uiso   1.00
C108   C     0.64737   0.17364   0.86188   0.00000  Uiso   1.00
C109   C     0.72627   0.16532   0.87243   0.00000  Uiso   1.00
C110   C     0.52515   0.02456   0.80406   0.00000  Uiso   1.00
C111   C     0.46213   0.99627   0.86388   0.00000  Uiso   1.00
C112   C     0.45630   0.90684   0.87534   0.00000  Uiso   1.00
C113   C     0.54716   0.13816   0.67814   0.00000  Uiso   1.00
C114   C     0.50263   0.20537   0.63210   0.00000  Uiso   1.00
C115   C     0.51532   0.21157   0.53754   0.00000  Uiso   1.00
H116   H     0.68754   0.96492   0.65895   0.00000  Uiso   1.00
H117   H     0.80266   0.00794   0.73052   0.00000  Uiso   1.00
H118   H     0.61744   0.83061   0.73251   0.00000  Uiso   1.00
H119   H     0.65794   0.03968   0.50076   0.00000  Uiso   1.00
H120   H     0.90592   0.08161   0.83050   0.00000  Uiso   1.00
H121   H     0.51536   0.70770   0.83467   0.00000  Uiso   1.00
H122   H     0.60076   0.14856   0.34598   0.00000  Uiso   1.00
H123   H     0.49977   0.16522   0.81776   0.00000  Uiso   1.00
H124   H     0.60460   0.21924   0.89804   0.00000  Uiso   1.00
H125   H     0.41938   0.04190   0.90003   0.00000  Uiso   1.00
H126   H     0.45988   0.25098   0.66828   0.00000  Uiso   1.00
H127   H     0.74516   0.25311   0.96647   0.00000  Uiso   1.00
H128   H     0.35460   0.87919   0.97064   0.00000  Uiso   1.00
H129   H     0.44000   0.32006   0.48196   0.00000  Uiso   1.00
O130   O     0.89788   0.19926   0.94846   0.00000  Uiso   1.00
O131   O     0.38547   0.70870   0.95391   0.00000  Uiso   1.00
O132   O     0.49752   0.28710   0.31277   0.00000  Uiso   1.00
N133   N     0.85370   0.11457   0.85147   0.00000  Uiso   1.00
N134   N     0.48856   0.76498   0.85538   0.00000  Uiso   1.00
N135   N     0.56839   0.17714   0.39850   0.00000  Uiso   1.00
N136   N     0.76720   0.20685   0.92463   0.00000  Uiso   1.00
N137   N     0.40206   0.85726   0.92854   0.00000  Uiso   1.00
N138   N     0.48188   0.26942   0.47166   0.00000  Uiso   1.00
C139   C     0.28433   0.35525   0.98423   0.00000  Uiso   1.00
C140   C     0.23082   0.31516   0.93227   0.00000  Uiso   1.00
C141   C     0.21956   0.22723   0.94029   0.00000  Uiso   1.00
C142   C     0.16817   0.20364   0.88687   0.00000  Uiso   1.00
C143   C     0.09093   0.13194   0.81524   0.00000  Uiso   1.00
C144   C     0.23250   0.42721   0.03350   0.00000  Uiso   1.00
C145   C     0.22266   0.43349   0.12665   0.00000  Uiso   1.00
C146   C     0.17269   0.50424   0.15844   0.00000  Uiso   1.00
C147   C     0.09810   0.60653   0.24398   0.00000  Uiso   1.00
C148   C     0.34087   0.40184   0.91211   0.00000  Uiso   1.00
C149   C     0.42214   0.38681   0.90320   0.00000  Uiso   1.00
C150   C     0.46342   0.43621   0.83280   0.00000  Uiso   1.00
C151   C     0.55709   0.49910   0.72986   0.00000  Uiso   1.00
C152   C     0.21311   0.46972   0.87507   0.00000  Uiso   1.00
C153   C     0.19213   0.37734   0.87298   0.00000  Uiso   1.00
C154   C     0.14075   0.35388   0.81953   0.00000  Uiso   1.00
C155   C     0.12942   0.26593   0.82747   0.00000  Uiso   1.00
C156   C     0.19381   0.48938   0.97422   0.00000  Uiso   1.00
C157   C     0.14385   0.56014   0.00588   0.00000  Uiso   1.00
C158   C     0.13393   0.56653   0.09905   0.00000  Uiso   1.00
C159   C     0.30218   0.46401   0.85282   0.00000  Uiso   1.00
C160   C     0.34334   0.51345   0.78243   0.00000  Uiso   1.00
C161   C     0.42466   0.49850   0.77341   0.00000  Uiso   1.00
H162   H     0.31445   0.30685   0.03039   0.00000  Uiso   1.00
H163   H     0.24950   0.17913   0.98619   0.00000  Uiso   1.00
H164   H     0.25261   0.38537   0.17251   0.00000  Uiso   1.00
H165   H     0.45206   0.33869   0.94909   0.00000  Uiso   1.00
H166   H     0.16041   0.06496   0.91106   0.00000  Uiso   1.00
H167   H     0.16698   0.49984   0.30393   0.00000  Uiso   1.00
H168   H     0.58757   0.40140   0.83282   0.00000  Uiso   1.00
H169   H     0.18299   0.51813   0.82891   0.00000  Uiso   1.00
H170   H     0.11082   0.40201   0.77365   0.00000  Uiso   1.00
H171   H     0.11393   0.60825   0.95998   0.00000  Uiso   1.00
H172   H     0.31338   0.56156   0.73656   0.00000  Uiso   1.00
H173   H     0.04785   0.24586   0.73857   0.00000  Uiso   1.00
H174   H     0.05442   0.68074   0.13143   0.00000  Uiso   1.00
H175   H     0.47501   0.58229   0.66032   0.00000  Uiso   1.00
O176   O     0.05901   0.07521   0.79212   0.00000  Uiso   1.00
O177   O     0.06764   0.64577   0.30754   0.00000  Uiso   1.00
O178   O     0.61944   0.51661   0.68945   0.00000  Uiso   1.00
N179   N     0.14383   0.12347   0.87804   0.00000  Uiso   1.00
N180   N     0.14996   0.53005   0.24534   0.00000  Uiso   1.00
N181   N     0.54318   0.43803   0.80491   0.00000  Uiso   1.00
N182   N     0.08327   0.22081   0.78522   0.00000  Uiso   1.00
N183   N     0.08940   0.62739   0.15252   0.00000  Uiso   1.00
N184   N     0.48261   0.53537   0.71209   0.00000  Uiso   1.00
C185   C     0.98972   0.29984   0.35888   0.00000  Uiso   1.00
C186   C     0.94342   0.24068   0.31796   0.00000  Uiso   1.00
C187   C     0.95023   0.22825   0.22638   0.00000  Uiso   1.00
C188   C     0.90269   0.17143   0.20265   0.00000  Uiso   1.00
C189   C     0.83882   0.08605   0.12915   0.00000  Uiso   1.00
C190   C     0.03067   0.24143   0.43165   0.00000  Uiso   1.00
C191   C     0.11082   0.22964   0.43565   0.00000  Uiso   1.00
C192   C     0.13673   0.17346   0.50763   0.00000  Uiso   1.00
C193   C     0.20829   0.08928   0.61067   0.00000  Uiso   1.00
C194   C     0.92892   0.36342   0.40977   0.00000  Uiso   1.00
C195   C     0.92354   0.45420   0.39539   0.00000  Uiso   1.00
C196   C     0.86379   0.50073   0.44897   0.00000  Uiso   1.00
C197   C     0.77739   0.60597   0.51802   0.00000  Uiso   1.00
C198   C     0.89321   0.22106   0.47961   0.00000  Uiso   1.00
C199   C     0.89101   0.19789   0.38354   0.00000  Uiso   1.00
C200   C     0.84345   0.14108   0.35995   0.00000  Uiso   1.00
C201   C     0.85017   0.12857   0.26835   0.00000  Uiso   1.00
C202   C     0.97825   0.19864   0.49722   0.00000  Uiso   1.00
C203   C     0.00404   0.14247   0.56922   0.00000  Uiso   1.00
C204   C     0.08421   0.13059   0.57333   0.00000  Uiso   1.00
C205   C     0.87650   0.32063   0.47534   0.00000  Uiso   1.00
C206   C     0.81676   0.36703   0.52896   0.00000  Uiso   1.00
C207   C     0.81128   0.45786   0.51466   0.00000  Uiso   1.00
H208   H     0.03053   0.33316   0.30783   0.00000  Uiso   1.00
H209   H     0.99081   0.26137   0.17565   0.00000  Uiso   1.00
H210   H     0.15137   0.26277   0.38490   0.00000  Uiso   1.00
H211   H     0.96412   0.48729   0.34464   0.00000  Uiso   1.00
H212   H     0.92366   0.16289   0.05803   0.00000  Uiso   1.00
H213   H     0.26223   0.16585   0.49925   0.00000  Uiso   1.00
H214   H     0.86736   0.63931   0.41436   0.00000  Uiso   1.00
H215   H     0.85239   0.18774   0.53067   0.00000  Uiso   1.00
H216   H     0.80289   0.10797   0.41071   0.00000  Uiso   1.00
H217   H     0.96346   0.10937   0.61996   0.00000  Uiso   1.00
H218   H     0.77620   0.33389   0.57970   0.00000  Uiso   1.00
H219   H     0.77115   0.03838   0.24882   0.00000  Uiso   1.00
H220   H     0.10971   0.04135   0.69004   0.00000  Uiso   1.00
H221   H     0.71485   0.51481   0.60515   0.00000  Uiso   1.00
O222   O     0.81807   0.05076   0.07050   0.00000  Uiso   1.00
O223   O     0.26225   0.05467   0.64937   0.00000  Uiso   1.00
O224   O     0.74420   0.67583   0.53799   0.00000  Uiso   1.00
N225   N     0.89455   0.14454   0.11939   0.00000  Uiso   1.00
N226   N     0.21109   0.14731   0.53190   0.00000  Uiso   1.00
N227   N     0.84194   0.58995   0.45255   0.00000  Uiso   1.00
N228   N     0.81248   0.07755   0.22205   0.00000  Uiso   1.00
N229   N     0.12902   0.08031   0.63456   0.00000  Uiso   1.00
N230   N     0.75987   0.52296   0.55521   0.00000  Uiso   1.00
C231   C     0.35548   0.98919   0.30467   0.00000  Uiso   1.00
C232   C     0.31896   0.93803   0.24377   0.00000  Uiso   1.00
C233   C     0.24008   0.94643   0.23331   0.00000  Uiso   1.00
C234   C     0.21838   0.89374   0.17439   0.00000  Uiso   1.00
C235   C     0.15329   0.82330   0.08690   0.00000  Uiso   1.00
C236   C     0.41959   0.03438   0.24268   0.00000  Uiso   1.00
C237   C     0.42533   0.12379   0.23131   0.00000  Uiso   1.00
C238   C     0.48834   0.15221   0.17148   0.00000  Uiso   1.00
C239   C     0.57951   0.23135   0.08235   0.00000  Uiso   1.00
C240   C     0.39758   0.92079   0.36859   0.00000  Uiso   1.00
C241   C     0.38482   0.91469   0.46310   0.00000  Uiso   1.00
C242   C     0.42932   0.84748   0.50928   0.00000  Uiso   1.00
C243   C     0.48632   0.75025   0.61565   0.00000  Uiso   1.00
C244   C     0.45720   0.88067   0.21863   0.00000  Uiso   1.00
C245   C     0.37422   0.87909   0.19704   0.00000  Uiso   1.00
C246   C     0.35263   0.82636   0.13812   0.00000  Uiso   1.00
C247   C     0.27373   0.83468   0.12757   0.00000  Uiso   1.00
C248   C     0.47485   0.97544   0.19594   0.00000  Uiso   1.00
C249   C     0.53787   0.00373   0.13612   0.00000  Uiso   1.00
C250   C     0.54370   0.09316   0.12466   0.00000  Uiso   1.00
C251   C     0.45284   0.86184   0.32186   0.00000  Uiso   1.00
C252   C     0.49737   0.79463   0.36790   0.00000  Uiso   1.00
C253   C     0.48468   0.78843   0.46246   0.00000  Uiso   1.00
H254   H     0.31246   0.03508   0.34105   0.00000  Uiso   1.00
H255   H     0.19734   0.99206   0.26948   0.00000  Uiso   1.00
H256   H     0.38256   0.16939   0.26749   0.00000  Uiso   1.00
H257   H     0.34206   0.96032   0.49924   0.00000  Uiso   1.00
H258   H     0.09408   0.91839   0.16950   0.00000  Uiso   1.00
H259   H     0.48464   0.29230   0.16533   0.00000  Uiso   1.00
H260   H     0.39924   0.85144   0.65402   0.00000  Uiso   1.00
H261   H     0.50023   0.83478   0.18224   0.00000  Uiso   1.00
H262   H     0.39540   0.78076   0.10196   0.00000  Uiso   1.00
H263   H     0.58062   0.95810   0.09997   0.00000  Uiso   1.00
H264   H     0.54012   0.74902   0.33172   0.00000  Uiso   1.00
H265   H     0.25484   0.74689   0.03353   0.00000  Uiso   1.00
H266   H     0.64540   0.12081   0.02936   0.00000  Uiso   1.00
H267   H     0.56000   0.67994   0.51804   0.00000  Uiso   1.00
O268   O     0.10212   0.80074   0.05154   0.00000  Uiso   1.00
O269   O     0.61453   0.29130   0.04609   0.00000  Uiso   1.00
O270   O     0.50248   0.71290   0.68723   0.00000  Uiso   1.00
N271   N     0.14630   0.88543   0.14853   0.00000  Uiso   1.00
N272   N     0.51144   0.23502   0.14462   0.00000  Uiso   1.00
N273   N     0.43161   0.82286   0.60150   0.00000  Uiso   1.00
N274   N     0.23280   0.79315   0.07537   0.00000  Uiso   1.00
N275   N     0.59794   0.14274   0.07146   0.00000  Uiso   1.00
N276   N     0.51812   0.73058   0.52834   0.00000  Uiso   1.00
