data_job_06177
_audit_creation_date              2018-12-19
_audit_creation_method            'Materials Studio'
_symmetry_space_group_name_H-M    'P1'
_symmetry_Int_Tables_number       1
_symmetry_cell_setting            triclinic
loop_
_symmetry_equiv_pos_as_xyz
  x,y,z
_cell_length_a                    9.8360
_cell_length_b                    19.4394
_cell_length_c                    19.8616
_cell_angle_alpha                 117.3320
_cell_angle_beta                  78.9250
_cell_angle_gamma                 83.7980
loop_
_atom_site_label
_atom_site_type_symbol
_atom_site_fract_x
_atom_site_fract_y
_atom_site_fract_z
_atom_site_U_iso_or_equiv
_atom_site_adp_type
_atom_site_occupancy
C1     C     0.65403   0.37182   0.17676   0.00000  Uiso   1.00
C2     C     0.81010   0.32827   0.14259   0.00000  Uiso   1.00
C3     C     0.86762   0.25860   0.07125   0.00000  Uiso   1.00
C4     C     0.01283   0.22812   0.05048   0.00000  Uiso   1.00
C5     C     0.24231   0.15470   0.99000   0.00000  Uiso   1.00
C6     C     0.60753   0.37874   0.25784   0.00000  Uiso   1.00
C7     C     0.49470   0.35153   0.28341   0.00000  Uiso   1.00
C8     C     0.46938   0.36355   0.35965   0.00000  Uiso   1.00
C9     C     0.38429   0.36855   0.47813   0.00000  Uiso   1.00
C10    C     0.65109   0.45625   0.19150   0.00000  Uiso   1.00
C11    C     0.57486   0.49422   0.16131   0.00000  Uiso   1.00
C12    C     0.58618   0.57150   0.18172   0.00000  Uiso   1.00
C13    C     0.56872   0.69684   0.19720   0.00000  Uiso   1.00
C14    C     0.80964   0.44156   0.26671   0.00000  Uiso   1.00
C15    C     0.89462   0.36614   0.19145   0.00000  Uiso   1.00
C16    C     0.03979   0.33576   0.17078   0.00000  Uiso   1.00
C17    C     0.09751   0.26607   0.09942   0.00000  Uiso   1.00
C18    C     0.69205   0.41662   0.30670   0.00000  Uiso   1.00
C19    C     0.66688   0.42869   0.38293   0.00000  Uiso   1.00
C20    C     0.55405   0.40149   0.40860   0.00000  Uiso   1.00
C21    C     0.73561   0.49413   0.24036   0.00000  Uiso   1.00
C22    C     0.74704   0.57137   0.26083   0.00000  Uiso   1.00
C23    C     0.67085   0.60945   0.23067   0.00000  Uiso   1.00
H24    H     0.58821   0.34233   0.13872   0.00000  Uiso   1.00
H25    H     0.80217   0.22930   0.03346   0.00000  Uiso   1.00
H26    H     0.42930   0.32223   0.24558   0.00000  Uiso   1.00
H27    H     0.50946   0.46489   0.12350   0.00000  Uiso   1.00
H28    H     0.07664   0.12068   0.93831   0.00000  Uiso   1.00
H29    H     0.29041   0.31663   0.38560   0.00000  Uiso   1.00
H30    H     0.45942   0.61746   0.12817   0.00000  Uiso   1.00
H31    H     0.87545   0.47105   0.30476   0.00000  Uiso   1.00
H32    H     0.10517   0.36508   0.20860   0.00000  Uiso   1.00
H33    H     0.73231   0.45800   0.42072   0.00000  Uiso   1.00
H34    H     0.81246   0.60066   0.29864   0.00000  Uiso   1.00
H35    H     0.32257   0.23088   0.08047   0.00000  Uiso   1.00
H36    H     0.53633   0.42684   0.52776   0.00000  Uiso   1.00
H37    H     0.70535   0.72766   0.27032   0.00000  Uiso   1.00
O38    O     0.34553   0.10373   0.94315   0.00000  Uiso   1.00
O39    O     0.31401   0.36083   0.52998   0.00000  Uiso   1.00
O40    O     0.53576   0.75551   0.19223   0.00000  Uiso   1.00
N41    N     0.10300   0.16117   0.98496   0.00000  Uiso   1.00
N42    N     0.36793   0.34436   0.40314   0.00000  Uiso   1.00
N43    N     0.52591   0.62562   0.16248   0.00000  Uiso   1.00
N44    N     0.23533   0.22046   0.06145   0.00000  Uiso   1.00
N45    N     0.50027   0.40366   0.47963   0.00000  Uiso   1.00
N46    N     0.65825   0.68491   0.23897   0.00000  Uiso   1.00
C47    C     0.83765   0.83107   0.19059   0.00000  Uiso   1.00
C48    C     0.96272   0.86837   0.17928   0.00000  Uiso   1.00
C49    C     0.95403   0.94088   0.18093   0.00000  Uiso   1.00
C50    C     0.08066   0.96456   0.16931   0.00000  Uiso   1.00
C51    C     0.25501   0.02964   0.15366   0.00000  Uiso   1.00
C52    C     0.87118   0.74938   0.11744   0.00000  Uiso   1.00
C53    C     0.78551   0.72185   0.06709   0.00000  Uiso   1.00
C54    C     0.83509   0.64536   0.00342   0.00000  Uiso   1.00
C55    C     0.86727   0.52569   0.89179   0.00000  Uiso   1.00
C56    C     0.84377   0.81592   0.25889   0.00000  Uiso   1.00
C57    C     0.73504   0.84430   0.32746   0.00000  Uiso   1.00
C58    C     0.76153   0.82381   0.38287   0.00000  Uiso   1.00
C59    C     0.75116   0.80744   0.49086   0.00000  Uiso   1.00
C60    C     0.07801   0.74418   0.16703   0.00000  Uiso   1.00
C61    C     0.09327   0.82117   0.16649   0.00000  Uiso   1.00
C62    C     0.21996   0.84475   0.15486   0.00000  Uiso   1.00
C63    C     0.21145   0.91728   0.15649   0.00000  Uiso   1.00
C64    C     0.00173   0.70219   0.10464   0.00000  Uiso   1.00
C65    C     0.05144   0.62572   0.04103   0.00000  Uiso   1.00
C66    C     0.96588   0.59808   0.99060   0.00000  Uiso   1.00
C67    C     0.97433   0.76872   0.24609   0.00000  Uiso   1.00
C68    C     0.00098   0.74817   0.30140   0.00000  Uiso   1.00
C69    C     0.89232   0.77653   0.37005   0.00000  Uiso   1.00
H70    H     0.73601   0.86781   0.20055   0.00000  Uiso   1.00
H71    H     0.85297   0.97739   0.19082   0.00000  Uiso   1.00
H72    H     0.68448   0.75839   0.07702   0.00000  Uiso   1.00
H73    H     0.63403   0.88082   0.33735   0.00000  Uiso   1.00
H74    H     0.04023   0.07804   0.17437   0.00000  Uiso   1.00
H75    H     0.68493   0.61626   0.93442   0.00000  Uiso   1.00
H76    H     0.57854   0.87444   0.48337   0.00000  Uiso   1.00
H77    H     0.17966   0.70744   0.15707   0.00000  Uiso   1.00
H78    H     0.32097   0.80821   0.14496   0.00000  Uiso   1.00
H79    H     0.15247   0.58921   0.03115   0.00000  Uiso   1.00
H80    H     0.10202   0.71165   0.29148   0.00000  Uiso   1.00
H81    H     0.42007   0.94073   0.13714   0.00000  Uiso   1.00
H82    H     0.06477   0.47895   0.89719   0.00000  Uiso   1.00
H83    H     0.95839   0.73713   0.44615   0.00000  Uiso   1.00
O84    O     0.31511   0.07856   0.14855   0.00000  Uiso   1.00
O85    O     0.84896   0.47272   0.83375   0.00000  Uiso   1.00
O86    O     0.70938   0.81145   0.55397   0.00000  Uiso   1.00
N87    N     0.11023   0.03190   0.16729   0.00000  Uiso   1.00
N88    N     0.77806   0.60017   0.94294   0.00000  Uiso   1.00
N89    N     0.67858   0.84153   0.45616   0.00000  Uiso   1.00
N90    N     0.31462   0.95802   0.14726   0.00000  Uiso   1.00
N91    N     0.98245   0.52629   0.92290   0.00000  Uiso   1.00
N92    N     0.88297   0.76765   0.43613   0.00000  Uiso   1.00
C93    C     0.02699   0.81618   0.63366   0.00000  Uiso   1.00
C94    C     0.13840   0.82970   0.67952   0.00000  Uiso   1.00
C95    C     0.12655   0.82753   0.74925   0.00000  Uiso   1.00
C96    C     0.24012   0.84146   0.78202   0.00000  Uiso   1.00
C97    C     0.39468   0.86013   0.85868   0.00000  Uiso   1.00
C98    C     0.99330   0.89009   0.62569   0.00000  Uiso   1.00
C99    C     0.85944   0.93869   0.65014   0.00000  Uiso   1.00
C100   C     0.85086   0.00345   0.63758   0.00000  Uiso   1.00
C101   C     0.78013   0.11584   0.63061   0.00000  Uiso   1.00
C102   C     0.10192   0.74836   0.55070   0.00000  Uiso   1.00
C103   C     0.05937   0.67780   0.51209   0.00000  Uiso   1.00
C104   C     0.14223   0.62324   0.43639   0.00000  Uiso   1.00
C105   C     0.24015   0.51557   0.31299   0.00000  Uiso   1.00
C106   C     0.24976   0.84477   0.56787   0.00000  Uiso   1.00
C107   C     0.25940   0.84523   0.64378   0.00000  Uiso   1.00
C108   C     0.37302   0.85916   0.67645   0.00000  Uiso   1.00
C109   C     0.36134   0.85702   0.74621   0.00000  Uiso   1.00
C110   C     0.11429   0.90562   0.58995   0.00000  Uiso   1.00
C111   C     0.10591   0.97032   0.57734   0.00000  Uiso   1.00
C112   C     0.97208   0.01901   0.60178   0.00000  Uiso   1.00
C113   C     0.22292   0.76388   0.51496   0.00000  Uiso   1.00
C114   C     0.30585   0.70943   0.43930   0.00000  Uiso   1.00
C115   C     0.26345   0.63880   0.40058   0.00000  Uiso   1.00
H116   H     0.93278   0.80410   0.66148   0.00000  Uiso   1.00
H117   H     0.03288   0.81552   0.77689   0.00000  Uiso   1.00
H118   H     0.76582   0.92665   0.67779   0.00000  Uiso   1.00
H119   H     0.96573   0.66580   0.53976   0.00000  Uiso   1.00
H120   H     0.19721   0.83506   0.88909   0.00000  Uiso   1.00
H121   H     0.63408   0.06938   0.68011   0.00000  Uiso   1.00
H122   H     0.05563   0.51932   0.38905   0.00000  Uiso   1.00
H123   H     0.34396   0.85686   0.54004   0.00000  Uiso   1.00
H124   H     0.46664   0.87118   0.64878   0.00000  Uiso   1.00
H125   H     0.19957   0.98232   0.54968   0.00000  Uiso   1.00
H126   H     0.39948   0.72147   0.41166   0.00000  Uiso   1.00
H127   H     0.54926   0.88024   0.78512   0.00000  Uiso   1.00
H128   H     0.98612   0.11456   0.57613   0.00000  Uiso   1.00
H129   H     0.40768   0.56450   0.28508   0.00000  Uiso   1.00
O130   O     0.44649   0.86614   0.91084   0.00000  Uiso   1.00
O131   O     0.70768   0.17355   0.63665   0.00000  Uiso   1.00
O132   O     0.26075   0.45189   0.25480   0.00000  Uiso   1.00
N133   N     0.26324   0.84371   0.84969   0.00000  Uiso   1.00
N134   N     0.73675   0.06280   0.65431   0.00000  Uiso   1.00
N135   N     0.13084   0.54854   0.38219   0.00000  Uiso   1.00
N136   N     0.45268   0.86802   0.79374   0.00000  Uiso   1.00
N137   N     0.92618   0.08711   0.59837   0.00000  Uiso   1.00
N138   N     0.32027   0.57285   0.32624   0.00000  Uiso   1.00
C139   C     0.34597   0.62818   0.82324   0.00000  Uiso   1.00
C140   C     0.18990   0.67173   0.85741   0.00000  Uiso   1.00
C141   C     0.13238   0.74140   0.92875   0.00000  Uiso   1.00
C142   C     0.98717   0.77188   0.94952   0.00000  Uiso   1.00
C143   C     0.75769   0.84530   0.01000   0.00000  Uiso   1.00
C144   C     0.39247   0.62126   0.74216   0.00000  Uiso   1.00
C145   C     0.50530   0.64847   0.71659   0.00000  Uiso   1.00
C146   C     0.53062   0.63645   0.64034   0.00000  Uiso   1.00
C147   C     0.61571   0.63145   0.52187   0.00000  Uiso   1.00
C148   C     0.34891   0.54375   0.80850   0.00000  Uiso   1.00
C149   C     0.42514   0.50578   0.83869   0.00000  Uiso   1.00
C150   C     0.41382   0.42850   0.81828   0.00000  Uiso   1.00
C151   C     0.43128   0.30316   0.80280   0.00000  Uiso   1.00
C152   C     0.19036   0.55844   0.73329   0.00000  Uiso   1.00
C153   C     0.10538   0.63386   0.80855   0.00000  Uiso   1.00
C154   C     0.96021   0.66424   0.82922   0.00000  Uiso   1.00
C155   C     0.90249   0.73393   0.90058   0.00000  Uiso   1.00
C156   C     0.30795   0.58338   0.69330   0.00000  Uiso   1.00
C157   C     0.33312   0.57131   0.61707   0.00000  Uiso   1.00
C158   C     0.44595   0.59851   0.59139   0.00000  Uiso   1.00
C159   C     0.26439   0.50587   0.75964   0.00000  Uiso   1.00
C160   C     0.25296   0.42863   0.73917   0.00000  Uiso   1.00
C161   C     0.32915   0.39056   0.76933   0.00000  Uiso   1.00
H162   H     0.41179   0.65767   0.86128   0.00000  Uiso   1.00
H163   H     0.19783   0.77070   0.96654   0.00000  Uiso   1.00
H164   H     0.57070   0.67777   0.75442   0.00000  Uiso   1.00
H165   H     0.49054   0.53511   0.87650   0.00000  Uiso   1.00
H166   H     0.92336   0.87932   0.06168   0.00000  Uiso   1.00
H167   H     0.70959   0.68337   0.61440   0.00000  Uiso   1.00
H168   H     0.54058   0.38254   0.87183   0.00000  Uiso   1.00
H169   H     0.12455   0.52895   0.69524   0.00000  Uiso   1.00
H170   H     0.89483   0.63492   0.79140   0.00000  Uiso   1.00
H171   H     0.26769   0.54200   0.57927   0.00000  Uiso   1.00
H172   H     0.18754   0.39934   0.70136   0.00000  Uiso   1.00
H173   H     0.67743   0.76912   0.91953   0.00000  Uiso   1.00
H174   H     0.46367   0.57316   0.47224   0.00000  Uiso   1.00
H175   H     0.29465   0.27234   0.72968   0.00000  Uiso   1.00
O176   O     0.65447   0.89627   0.05685   0.00000  Uiso   1.00
O177   O     0.68599   0.63917   0.47002   0.00000  Uiso   1.00
O178   O     0.46424   0.24449   0.80777   0.00000  Uiso   1.00
N179   N     0.89700   0.83883   0.01504   0.00000  Uiso   1.00
N180   N     0.63207   0.65564   0.59686   0.00000  Uiso   1.00
N181   N     0.47409   0.37438   0.83752   0.00000  Uiso   1.00
N182   N     0.76467   0.77954   0.93855   0.00000  Uiso   1.00
N183   N     0.49973   0.59634   0.52037   0.00000  Uiso   1.00
N184   N     0.34175   0.31509   0.76103   0.00000  Uiso   1.00
C185   C     0.16235   0.16893   0.80941   0.00000  Uiso   1.00
C186   C     0.03728   0.13163   0.82072   0.00000  Uiso   1.00
C187   C     0.04597   0.05912   0.81907   0.00000  Uiso   1.00
C188   C     0.91934   0.03544   0.83069   0.00000  Uiso   1.00
C189   C     0.74499   0.97036   0.84634   0.00000  Uiso   1.00
C190   C     0.12882   0.25062   0.88256   0.00000  Uiso   1.00
C191   C     0.21449   0.27815   0.93291   0.00000  Uiso   1.00
C192   C     0.16491   0.35464   0.99658   0.00000  Uiso   1.00
C193   C     0.13273   0.47431   0.10821   0.00000  Uiso   1.00
C194   C     0.15623   0.18408   0.74111   0.00000  Uiso   1.00
C195   C     0.26496   0.15570   0.67253   0.00000  Uiso   1.00
C196   C     0.23847   0.17619   0.61713   0.00000  Uiso   1.00
C197   C     0.24884   0.19256   0.50914   0.00000  Uiso   1.00
C198   C     0.92199   0.25582   0.83297   0.00000  Uiso   1.00
C199   C     0.90673   0.17883   0.83351   0.00000  Uiso   1.00
C200   C     0.78004   0.15525   0.84514   0.00000  Uiso   1.00
C201   C     0.78855   0.08272   0.84351   0.00000  Uiso   1.00
C202   C     0.99827   0.29781   0.89536   0.00000  Uiso   1.00
C203   C     0.94856   0.37428   0.95897   0.00000  Uiso   1.00
C204   C     0.03412   0.40192   0.00940   0.00000  Uiso   1.00
C205   C     0.02567   0.23128   0.75391   0.00000  Uiso   1.00
C206   C     0.99902   0.25183   0.69860   0.00000  Uiso   1.00
C207   C     0.10768   0.22347   0.62995   0.00000  Uiso   1.00
H208   H     0.26399   0.13219   0.79945   0.00000  Uiso   1.00
H209   H     0.14703   0.02261   0.80918   0.00000  Uiso   1.00
H210   H     0.31552   0.24161   0.92298   0.00000  Uiso   1.00
H211   H     0.36597   0.11918   0.66265   0.00000  Uiso   1.00
H212   H     0.95977   0.92196   0.82563   0.00000  Uiso   1.00
H213   H     0.31507   0.38374   0.06558   0.00000  Uiso   1.00
H214   H     0.42146   0.12556   0.51663   0.00000  Uiso   1.00
H215   H     0.82034   0.29256   0.84293   0.00000  Uiso   1.00
H216   H     0.67903   0.19179   0.85504   0.00000  Uiso   1.00
H217   H     0.84753   0.41079   0.96885   0.00000  Uiso   1.00
H218   H     0.89798   0.28835   0.70852   0.00000  Uiso   1.00
H219   H     0.57993   0.05927   0.86286   0.00000  Uiso   1.00
H220   H     0.93523   0.52105   0.10281   0.00000  Uiso   1.00
H221   H     0.04161   0.26287   0.55385   0.00000  Uiso   1.00
O222   O     0.68489   0.92144   0.85145   0.00000  Uiso   1.00
O223   O     0.15104   0.52728   0.16625   0.00000  Uiso   1.00
O224   O     0.29062   0.18855   0.44603   0.00000  Uiso   1.00
N225   N     0.88977   0.96810   0.83271   0.00000  Uiso   1.00
N226   N     0.22194   0.39983   0.05706   0.00000  Uiso   1.00
N227   N     0.32142   0.15847   0.54384   0.00000  Uiso   1.00
N228   N     0.68538   0.04198   0.85274   0.00000  Uiso   1.00
N229   N     0.01755   0.47371   0.07710   0.00000  Uiso   1.00
N230   N     0.11703   0.23235   0.56387   0.00000  Uiso   1.00
C231   C     0.97301   0.18382   0.36634   0.00000  Uiso   1.00
C232   C     0.86160   0.17030   0.32048   0.00000  Uiso   1.00
C233   C     0.87345   0.17247   0.25075   0.00000  Uiso   1.00
C234   C     0.75988   0.15854   0.21798   0.00000  Uiso   1.00
C235   C     0.60532   0.13987   0.14132   0.00000  Uiso   1.00
C236   C     0.00670   0.10991   0.37431   0.00000  Uiso   1.00
C237   C     0.14056   0.06131   0.34986   0.00000  Uiso   1.00
C238   C     0.14914   0.99655   0.36242   0.00000  Uiso   1.00
C239   C     0.21987   0.88416   0.36939   0.00000  Uiso   1.00
C240   C     0.89808   0.25164   0.44930   0.00000  Uiso   1.00
C241   C     0.94063   0.32220   0.48791   0.00000  Uiso   1.00
C242   C     0.85777   0.37676   0.56361   0.00000  Uiso   1.00
C243   C     0.75985   0.48443   0.68701   0.00000  Uiso   1.00
C244   C     0.75024   0.15523   0.43213   0.00000  Uiso   1.00
C245   C     0.74060   0.15477   0.35622   0.00000  Uiso   1.00
C246   C     0.62698   0.14084   0.32355   0.00000  Uiso   1.00
C247   C     0.63866   0.14298   0.25379   0.00000  Uiso   1.00
C248   C     0.88571   0.09438   0.41005   0.00000  Uiso   1.00
C249   C     0.89409   0.02968   0.42265   0.00000  Uiso   1.00
C250   C     0.02792   0.98099   0.39822   0.00000  Uiso   1.00
C251   C     0.77708   0.23612   0.48504   0.00000  Uiso   1.00
C252   C     0.69415   0.29057   0.56070   0.00000  Uiso   1.00
C253   C     0.73655   0.36120   0.59942   0.00000  Uiso   1.00
H254   H     0.06722   0.19590   0.33851   0.00000  Uiso   1.00
H255   H     0.96712   0.18448   0.22311   0.00000  Uiso   1.00
H256   H     0.23418   0.07335   0.32221   0.00000  Uiso   1.00
H257   H     0.03427   0.33420   0.46024   0.00000  Uiso   1.00
H258   H     0.80279   0.16494   0.11091   0.00000  Uiso   1.00
H259   H     0.36592   0.93062   0.31989   0.00000  Uiso   1.00
H260   H     0.94437   0.48068   0.61095   0.00000  Uiso   1.00
H261   H     0.65604   0.14314   0.45996   0.00000  Uiso   1.00
H262   H     0.53336   0.12882   0.35122   0.00000  Uiso   1.00
H263   H     0.80043   0.01768   0.45032   0.00000  Uiso   1.00
H264   H     0.60052   0.27853   0.58834   0.00000  Uiso   1.00
H265   H     0.45074   0.11976   0.21488   0.00000  Uiso   1.00
H266   H     0.01388   0.88544   0.42387   0.00000  Uiso   1.00
H267   H     0.59232   0.43550   0.71492   0.00000  Uiso   1.00
O268   O     0.55351   0.13385   0.08916   0.00000  Uiso   1.00
O269   O     0.29232   0.82645   0.36335   0.00000  Uiso   1.00
O270   O     0.73925   0.54811   0.74520   0.00000  Uiso   1.00
N271   N     0.73676   0.15629   0.15031   0.00000  Uiso   1.00
N272   N     0.26325   0.93720   0.34568   0.00000  Uiso   1.00
N273   N     0.86916   0.45146   0.61781   0.00000  Uiso   1.00
N274   N     0.54732   0.13198   0.20626   0.00000  Uiso   1.00
N275   N     0.07382   0.91289   0.40163   0.00000  Uiso   1.00
N276   N     0.67973   0.42715   0.67376   0.00000  Uiso   1.00
