data_job_01549
_audit_creation_date              2018-12-19
_audit_creation_method            'Materials Studio'
_symmetry_space_group_name_H-M    'P1'
_symmetry_Int_Tables_number       1
_symmetry_cell_setting            triclinic
loop_
_symmetry_equiv_pos_as_xyz
  x,y,z
_cell_length_a                    24.8570
_cell_length_b                    24.8570
_cell_length_c                    7.5368
_cell_angle_alpha                 90.0000
_cell_angle_beta                  90.0000
_cell_angle_gamma                 120.0000
loop_
_atom_site_label
_atom_site_type_symbol
_atom_site_fract_x
_atom_site_fract_y
_atom_site_fract_z
_atom_site_U_iso_or_equiv
_atom_site_adp_type
_atom_site_occupancy
C1     C     0.66698   0.90648   0.14900   0.00000  Uiso   1.00
C2     C     0.60988   0.90185   0.05887   0.00000  Uiso   1.00
C3     C     0.57341   0.92500   0.12538   0.00000  Uiso   1.00
C4     C     0.52317   0.91601   0.02284   0.00000  Uiso   1.00
C5     C     0.43651   0.91350   0.90776   0.00000  Uiso   1.00
C6     C     0.65434   0.84003   0.16621   0.00000  Uiso   1.00
C7     C     0.65526   0.81120   0.32298   0.00000  Uiso   1.00
C8     C     0.64246   0.75018   0.31079   0.00000  Uiso   1.00
C9     C     0.62486   0.65171   0.36235   0.00000  Uiso   1.00
C10    C     0.72001   0.93843   0.01607   0.00000  Uiso   1.00
C11    C     0.77616   0.99233   0.04661   0.00000  Uiso   1.00
C12    C     0.81865   0.01415   0.90803   0.00000  Uiso   1.00
C13    C     0.90303   0.06847   0.72647   0.00000  Uiso   1.00
C14    C     0.64262   0.84937   0.84862   0.00000  Uiso   1.00
C15    C     0.59665   0.87082   0.89572   0.00000  Uiso   1.00
C16    C     0.54645   0.86180   0.79305   0.00000  Uiso   1.00
C17    C     0.50991   0.88494   0.85940   0.00000  Uiso   1.00
C18    C     0.64111   0.80900   0.00307   0.00000  Uiso   1.00
C19    C     0.62831   0.74801   0.99065   0.00000  Uiso   1.00
C20    C     0.62920   0.71910   0.14735   0.00000  Uiso   1.00
C21    C     0.70678   0.90741   0.85292   0.00000  Uiso   1.00
C22    C     0.74920   0.92914   0.71428   0.00000  Uiso   1.00
C23    C     0.80540   0.98307   0.74459   0.00000  Uiso   1.00
H24    H     0.67728   0.93063   0.27602   0.00000  Uiso   1.00
H25    H     0.58366   0.94900   0.25165   0.00000  Uiso   1.00
H26    H     0.66551   0.83523   0.44921   0.00000  Uiso   1.00
H27    H     0.78638   0.01633   0.17288   0.00000  Uiso   1.00
H28    H     0.47402   0.95565   0.15272   0.00000  Uiso   1.00
H29    H     0.64661   0.71577   0.56927   0.00000  Uiso   1.00
H30    H     0.90151   0.09766   0.98658   0.00000  Uiso   1.00
H31    H     0.63231   0.82521   0.72160   0.00000  Uiso   1.00
H32    H     0.53623   0.83779   0.66680   0.00000  Uiso   1.00
H33    H     0.61807   0.72402   0.86437   0.00000  Uiso   1.00
H34    H     0.73895   0.90512   0.58804   0.00000  Uiso   1.00
H35    H     0.43552   0.86539   0.67804   0.00000  Uiso   1.00
H36    H     0.60811   0.62551   0.09460   0.00000  Uiso   1.00
H37    H     0.86300   0.00740   0.51190   0.00000  Uiso   1.00
O38    O     0.39236   0.92068   0.88936   0.00000  Uiso   1.00
O39    O     0.61881   0.60597   0.43586   0.00000  Uiso   1.00
O40    O     0.95322   0.10700   0.67139   0.00000  Uiso   1.00
N41    N     0.47815   0.93270   0.04850   0.00000  Uiso   1.00
N42    N     0.63951   0.70841   0.43796   0.00000  Uiso   1.00
N43    N     0.87782   0.06544   0.89321   0.00000  Uiso   1.00
N44    N     0.45743   0.88413   0.79308   0.00000  Uiso   1.00
N45    N     0.61879   0.65985   0.18254   0.00000  Uiso   1.00
N46    N     0.85710   0.01687   0.63779   0.00000  Uiso   1.00
C47    C     0.09352   0.76049   0.14900   0.00000  Uiso   1.00
C48    C     0.09815   0.70803   0.05887   0.00000  Uiso   1.00
C49    C     0.07500   0.64841   0.12538   0.00000  Uiso   1.00
C50    C     0.08399   0.60716   0.02284   0.00000  Uiso   1.00
C51    C     0.08650   0.52300   0.90776   0.00000  Uiso   1.00
C52    C     0.15997   0.81431   0.16621   0.00000  Uiso   1.00
C53    C     0.18880   0.84406   0.32298   0.00000  Uiso   1.00
C54    C     0.24982   0.89227   0.31079   0.00000  Uiso   1.00
C55    C     0.34829   0.97315   0.36235   0.00000  Uiso   1.00
C56    C     0.06157   0.78158   0.01607   0.00000  Uiso   1.00
C57    C     0.00767   0.78382   0.04661   0.00000  Uiso   1.00
C58    C     0.98585   0.80450   0.90803   0.00000  Uiso   1.00
C59    C     0.93153   0.83456   0.72647   0.00000  Uiso   1.00
C60    C     0.15063   0.79325   0.84862   0.00000  Uiso   1.00
C61    C     0.12918   0.72583   0.89572   0.00000  Uiso   1.00
C62    C     0.13820   0.68465   0.79305   0.00000  Uiso   1.00
C63    C     0.11506   0.62498   0.85940   0.00000  Uiso   1.00
C64    C     0.19100   0.83210   0.00307   0.00000  Uiso   1.00
C65    C     0.25199   0.88029   0.99065   0.00000  Uiso   1.00
C66    C     0.28090   0.91010   0.14735   0.00000  Uiso   1.00
C67    C     0.09259   0.79937   0.85292   0.00000  Uiso   1.00
C68    C     0.07086   0.82006   0.71428   0.00000  Uiso   1.00
C69    C     0.01693   0.82233   0.74459   0.00000  Uiso   1.00
H70    H     0.06937   0.74665   0.27602   0.00000  Uiso   1.00
H71    H     0.05100   0.63466   0.25165   0.00000  Uiso   1.00
H72    H     0.16477   0.83028   0.44921   0.00000  Uiso   1.00
H73    H     0.98367   0.77005   0.17288   0.00000  Uiso   1.00
H74    H     0.04435   0.51836   0.15272   0.00000  Uiso   1.00
H75    H     0.28423   0.93085   0.56927   0.00000  Uiso   1.00
H76    H     0.90234   0.80385   0.98658   0.00000  Uiso   1.00
H77    H     0.17479   0.80710   0.72160   0.00000  Uiso   1.00
H78    H     0.16221   0.69843   0.66680   0.00000  Uiso   1.00
H79    H     0.27598   0.89405   0.86437   0.00000  Uiso   1.00
H80    H     0.09488   0.83382   0.58804   0.00000  Uiso   1.00
H81    H     0.13461   0.57012   0.67804   0.00000  Uiso   1.00
H82    H     0.37449   0.98261   0.09460   0.00000  Uiso   1.00
H83    H     0.99260   0.85561   0.51190   0.00000  Uiso   1.00
O84    O     0.07932   0.47167   0.88936   0.00000  Uiso   1.00
O85    O     0.39403   0.01284   0.43586   0.00000  Uiso   1.00
O86    O     0.89300   0.84622   0.67139   0.00000  Uiso   1.00
N87    N     0.06730   0.54545   0.04850   0.00000  Uiso   1.00
N88    N     0.29159   0.93109   0.43796   0.00000  Uiso   1.00
N89    N     0.93456   0.81238   0.89321   0.00000  Uiso   1.00
N90    N     0.11587   0.57330   0.79308   0.00000  Uiso   1.00
N91    N     0.34015   0.95894   0.18254   0.00000  Uiso   1.00
N92    N     0.98313   0.84023   0.63779   0.00000  Uiso   1.00
C93    C     0.23951   0.33302   0.14900   0.00000  Uiso   1.00
C94    C     0.29197   0.39012   0.05887   0.00000  Uiso   1.00
C95    C     0.35159   0.42659   0.12538   0.00000  Uiso   1.00
C96    C     0.39284   0.47683   0.02284   0.00000  Uiso   1.00
C97    C     0.47700   0.56349   0.90776   0.00000  Uiso   1.00
C98    C     0.18569   0.34566   0.16621   0.00000  Uiso   1.00
C99    C     0.15594   0.34474   0.32298   0.00000  Uiso   1.00
C100   C     0.10773   0.35754   0.31079   0.00000  Uiso   1.00
C101   C     0.02685   0.37514   0.36235   0.00000  Uiso   1.00
C102   C     0.21842   0.27999   0.01607   0.00000  Uiso   1.00
C103   C     0.21618   0.22384   0.04661   0.00000  Uiso   1.00
C104   C     0.19550   0.18135   0.90803   0.00000  Uiso   1.00
C105   C     0.16544   0.09697   0.72647   0.00000  Uiso   1.00
C106   C     0.20675   0.35738   0.84862   0.00000  Uiso   1.00
C107   C     0.27417   0.40335   0.89572   0.00000  Uiso   1.00
C108   C     0.31535   0.45355   0.79305   0.00000  Uiso   1.00
C109   C     0.37502   0.49009   0.85940   0.00000  Uiso   1.00
C110   C     0.16790   0.35889   0.00307   0.00000  Uiso   1.00
C111   C     0.11971   0.37169   0.99065   0.00000  Uiso   1.00
C112   C     0.08990   0.37080   0.14735   0.00000  Uiso   1.00
C113   C     0.20063   0.29322   0.85292   0.00000  Uiso   1.00
C114   C     0.17994   0.25080   0.71428   0.00000  Uiso   1.00
C115   C     0.17767   0.19460   0.74459   0.00000  Uiso   1.00
H116   H     0.25335   0.32272   0.27602   0.00000  Uiso   1.00
H117   H     0.36534   0.41634   0.25165   0.00000  Uiso   1.00
H118   H     0.16972   0.33449   0.44921   0.00000  Uiso   1.00
H119   H     0.22995   0.21362   0.17288   0.00000  Uiso   1.00
H120   H     0.48164   0.52598   0.15272   0.00000  Uiso   1.00
H121   H     0.06915   0.35339   0.56927   0.00000  Uiso   1.00
H122   H     0.19615   0.09849   0.98658   0.00000  Uiso   1.00
H123   H     0.19290   0.36769   0.72160   0.00000  Uiso   1.00
H124   H     0.30157   0.46377   0.66680   0.00000  Uiso   1.00
H125   H     0.10595   0.38193   0.86437   0.00000  Uiso   1.00
H126   H     0.16618   0.26105   0.58804   0.00000  Uiso   1.00
H127   H     0.42988   0.56448   0.67804   0.00000  Uiso   1.00
H128   H     0.01739   0.39189   0.09460   0.00000  Uiso   1.00
H129   H     0.14439   0.13700   0.51190   0.00000  Uiso   1.00
O130   O     0.52833   0.60764   0.88936   0.00000  Uiso   1.00
O131   O     0.98716   0.38119   0.43586   0.00000  Uiso   1.00
O132   O     0.15378   0.04678   0.67139   0.00000  Uiso   1.00
N133   N     0.45455   0.52185   0.04850   0.00000  Uiso   1.00
N134   N     0.06891   0.36049   0.43796   0.00000  Uiso   1.00
N135   N     0.18762   0.12218   0.89321   0.00000  Uiso   1.00
N136   N     0.42670   0.54257   0.79308   0.00000  Uiso   1.00
N137   N     0.04106   0.38121   0.18254   0.00000  Uiso   1.00
N138   N     0.15977   0.14290   0.63779   0.00000  Uiso   1.00
C139   C     0.33302   0.09352   0.85100   0.00000  Uiso   1.00
C140   C     0.39012   0.09815   0.94113   0.00000  Uiso   1.00
C141   C     0.42659   0.07500   0.87462   0.00000  Uiso   1.00
C142   C     0.47683   0.08399   0.97716   0.00000  Uiso   1.00
C143   C     0.56349   0.08650   0.09224   0.00000  Uiso   1.00
C144   C     0.34566   0.15997   0.83379   0.00000  Uiso   1.00
C145   C     0.34474   0.18880   0.67702   0.00000  Uiso   1.00
C146   C     0.35754   0.24982   0.68921   0.00000  Uiso   1.00
C147   C     0.37514   0.34829   0.63765   0.00000  Uiso   1.00
C148   C     0.27999   0.06157   0.98393   0.00000  Uiso   1.00
C149   C     0.22384   0.00767   0.95339   0.00000  Uiso   1.00
C150   C     0.18135   0.98585   0.09197   0.00000  Uiso   1.00
C151   C     0.09697   0.93153   0.27353   0.00000  Uiso   1.00
C152   C     0.35738   0.15063   0.15138   0.00000  Uiso   1.00
C153   C     0.40335   0.12918   0.10428   0.00000  Uiso   1.00
C154   C     0.45355   0.13820   0.20695   0.00000  Uiso   1.00
C155   C     0.49009   0.11506   0.14060   0.00000  Uiso   1.00
C156   C     0.35889   0.19100   0.99693   0.00000  Uiso   1.00
C157   C     0.37169   0.25199   0.00935   0.00000  Uiso   1.00
C158   C     0.37080   0.28090   0.85265   0.00000  Uiso   1.00
C159   C     0.29322   0.09259   0.14708   0.00000  Uiso   1.00
C160   C     0.25080   0.07086   0.28572   0.00000  Uiso   1.00
C161   C     0.19460   0.01693   0.25541   0.00000  Uiso   1.00
H162   H     0.32272   0.06937   0.72398   0.00000  Uiso   1.00
H163   H     0.41634   0.05100   0.74835   0.00000  Uiso   1.00
H164   H     0.33449   0.16477   0.55079   0.00000  Uiso   1.00
H165   H     0.21362   0.98367   0.82712   0.00000  Uiso   1.00
H166   H     0.52598   0.04435   0.84728   0.00000  Uiso   1.00
H167   H     0.35339   0.28423   0.43073   0.00000  Uiso   1.00
H168   H     0.09849   0.90234   0.01342   0.00000  Uiso   1.00
H169   H     0.36769   0.17479   0.27840   0.00000  Uiso   1.00
H170   H     0.46377   0.16221   0.33320   0.00000  Uiso   1.00
H171   H     0.38193   0.27598   0.13563   0.00000  Uiso   1.00
H172   H     0.26105   0.09488   0.41196   0.00000  Uiso   1.00
H173   H     0.56448   0.13461   0.32196   0.00000  Uiso   1.00
H174   H     0.39189   0.37449   0.90540   0.00000  Uiso   1.00
H175   H     0.13700   0.99260   0.48810   0.00000  Uiso   1.00
O176   O     0.60764   0.07932   0.11064   0.00000  Uiso   1.00
O177   O     0.38119   0.39403   0.56414   0.00000  Uiso   1.00
O178   O     0.04678   0.89300   0.32861   0.00000  Uiso   1.00
N179   N     0.52185   0.06730   0.95150   0.00000  Uiso   1.00
N180   N     0.36049   0.29159   0.56204   0.00000  Uiso   1.00
N181   N     0.12218   0.93456   0.10679   0.00000  Uiso   1.00
N182   N     0.54257   0.11587   0.20692   0.00000  Uiso   1.00
N183   N     0.38121   0.34015   0.81746   0.00000  Uiso   1.00
N184   N     0.14290   0.98313   0.36221   0.00000  Uiso   1.00
C185   C     0.90648   0.23951   0.85100   0.00000  Uiso   1.00
C186   C     0.90185   0.29197   0.94113   0.00000  Uiso   1.00
C187   C     0.92500   0.35159   0.87462   0.00000  Uiso   1.00
C188   C     0.91601   0.39284   0.97716   0.00000  Uiso   1.00
C189   C     0.91350   0.47700   0.09224   0.00000  Uiso   1.00
C190   C     0.84003   0.18569   0.83379   0.00000  Uiso   1.00
C191   C     0.81120   0.15594   0.67702   0.00000  Uiso   1.00
C192   C     0.75018   0.10773   0.68921   0.00000  Uiso   1.00
C193   C     0.65171   0.02685   0.63765   0.00000  Uiso   1.00
C194   C     0.93843   0.21842   0.98393   0.00000  Uiso   1.00
C195   C     0.99233   0.21618   0.95339   0.00000  Uiso   1.00
C196   C     0.01415   0.19550   0.09197   0.00000  Uiso   1.00
C197   C     0.06847   0.16544   0.27353   0.00000  Uiso   1.00
C198   C     0.84937   0.20675   0.15138   0.00000  Uiso   1.00
C199   C     0.87082   0.27417   0.10428   0.00000  Uiso   1.00
C200   C     0.86180   0.31535   0.20695   0.00000  Uiso   1.00
C201   C     0.88494   0.37502   0.14060   0.00000  Uiso   1.00
C202   C     0.80900   0.16790   0.99693   0.00000  Uiso   1.00
C203   C     0.74801   0.11971   0.00935   0.00000  Uiso   1.00
C204   C     0.71910   0.08990   0.85265   0.00000  Uiso   1.00
C205   C     0.90741   0.20063   0.14708   0.00000  Uiso   1.00
C206   C     0.92914   0.17994   0.28572   0.00000  Uiso   1.00
C207   C     0.98307   0.17767   0.25541   0.00000  Uiso   1.00
H208   H     0.93063   0.25335   0.72398   0.00000  Uiso   1.00
H209   H     0.94900   0.36534   0.74835   0.00000  Uiso   1.00
H210   H     0.83523   0.16972   0.55079   0.00000  Uiso   1.00
H211   H     0.01633   0.22995   0.82712   0.00000  Uiso   1.00
H212   H     0.95565   0.48164   0.84728   0.00000  Uiso   1.00
H213   H     0.71577   0.06915   0.43073   0.00000  Uiso   1.00
H214   H     0.09766   0.19615   0.01342   0.00000  Uiso   1.00
H215   H     0.82521   0.19290   0.27840   0.00000  Uiso   1.00
H216   H     0.83779   0.30157   0.33320   0.00000  Uiso   1.00
H217   H     0.72402   0.10595   0.13563   0.00000  Uiso   1.00
H218   H     0.90512   0.16618   0.41196   0.00000  Uiso   1.00
H219   H     0.86539   0.42988   0.32196   0.00000  Uiso   1.00
H220   H     0.62551   0.01739   0.90540   0.00000  Uiso   1.00
H221   H     0.00740   0.14439   0.48810   0.00000  Uiso   1.00
O222   O     0.92068   0.52833   0.11064   0.00000  Uiso   1.00
O223   O     0.60597   0.98716   0.56414   0.00000  Uiso   1.00
O224   O     0.10700   0.15378   0.32861   0.00000  Uiso   1.00
N225   N     0.93270   0.45455   0.95150   0.00000  Uiso   1.00
N226   N     0.70841   0.06891   0.56204   0.00000  Uiso   1.00
N227   N     0.06544   0.18762   0.10679   0.00000  Uiso   1.00
N228   N     0.88413   0.42670   0.20692   0.00000  Uiso   1.00
N229   N     0.65985   0.04106   0.81746   0.00000  Uiso   1.00
N230   N     0.01687   0.15977   0.36221   0.00000  Uiso   1.00
C231   C     0.76049   0.66698   0.85100   0.00000  Uiso   1.00
C232   C     0.70803   0.60988   0.94113   0.00000  Uiso   1.00
C233   C     0.64841   0.57341   0.87462   0.00000  Uiso   1.00
C234   C     0.60716   0.52317   0.97716   0.00000  Uiso   1.00
C235   C     0.52300   0.43651   0.09224   0.00000  Uiso   1.00
C236   C     0.81431   0.65434   0.83379   0.00000  Uiso   1.00
C237   C     0.84406   0.65526   0.67702   0.00000  Uiso   1.00
C238   C     0.89227   0.64246   0.68921   0.00000  Uiso   1.00
C239   C     0.97315   0.62486   0.63765   0.00000  Uiso   1.00
C240   C     0.78158   0.72001   0.98393   0.00000  Uiso   1.00
C241   C     0.78382   0.77616   0.95339   0.00000  Uiso   1.00
C242   C     0.80450   0.81865   0.09197   0.00000  Uiso   1.00
C243   C     0.83456   0.90303   0.27353   0.00000  Uiso   1.00
C244   C     0.79325   0.64262   0.15138   0.00000  Uiso   1.00
C245   C     0.72583   0.59665   0.10428   0.00000  Uiso   1.00
C246   C     0.68465   0.54645   0.20695   0.00000  Uiso   1.00
C247   C     0.62498   0.50991   0.14060   0.00000  Uiso   1.00
C248   C     0.83210   0.64111   0.99693   0.00000  Uiso   1.00
C249   C     0.88029   0.62831   0.00935   0.00000  Uiso   1.00
C250   C     0.91010   0.62920   0.85265   0.00000  Uiso   1.00
C251   C     0.79937   0.70678   0.14708   0.00000  Uiso   1.00
C252   C     0.82006   0.74920   0.28572   0.00000  Uiso   1.00
C253   C     0.82233   0.80540   0.25541   0.00000  Uiso   1.00
H254   H     0.74665   0.67728   0.72398   0.00000  Uiso   1.00
H255   H     0.63466   0.58366   0.74835   0.00000  Uiso   1.00
H256   H     0.83028   0.66551   0.55079   0.00000  Uiso   1.00
H257   H     0.77005   0.78638   0.82712   0.00000  Uiso   1.00
H258   H     0.51836   0.47402   0.84728   0.00000  Uiso   1.00
H259   H     0.93085   0.64661   0.43073   0.00000  Uiso   1.00
H260   H     0.80385   0.90151   0.01342   0.00000  Uiso   1.00
H261   H     0.80710   0.63231   0.27840   0.00000  Uiso   1.00
H262   H     0.69843   0.53623   0.33320   0.00000  Uiso   1.00
H263   H     0.89405   0.61807   0.13563   0.00000  Uiso   1.00
H264   H     0.83382   0.73895   0.41196   0.00000  Uiso   1.00
H265   H     0.57012   0.43552   0.32196   0.00000  Uiso   1.00
H266   H     0.98261   0.60811   0.90540   0.00000  Uiso   1.00
H267   H     0.85561   0.86300   0.48810   0.00000  Uiso   1.00
O268   O     0.47167   0.39236   0.11064   0.00000  Uiso   1.00
O269   O     0.01284   0.61881   0.56414   0.00000  Uiso   1.00
O270   O     0.84622   0.95322   0.32861   0.00000  Uiso   1.00
N271   N     0.54545   0.47815   0.95150   0.00000  Uiso   1.00
N272   N     0.93109   0.63951   0.56204   0.00000  Uiso   1.00
N273   N     0.81238   0.87782   0.10679   0.00000  Uiso   1.00
N274   N     0.57330   0.45743   0.20692   0.00000  Uiso   1.00
N275   N     0.95894   0.61879   0.81746   0.00000  Uiso   1.00
N276   N     0.84023   0.85710   0.36221   0.00000  Uiso   1.00
