data_job_01543
_audit_creation_date              2018-12-19
_audit_creation_method            'Materials Studio'
_symmetry_space_group_name_H-M    'P1'
_symmetry_Int_Tables_number       1
_symmetry_cell_setting            triclinic
loop_
_symmetry_equiv_pos_as_xyz
  x,y,z
_cell_length_a                    12.1263
_cell_length_b                    18.4231
_cell_length_c                    20.5670
_cell_angle_alpha                 90.0000
_cell_angle_beta                  134.8229
_cell_angle_gamma                 90.0000
loop_
_atom_site_label
_atom_site_type_symbol
_atom_site_fract_x
_atom_site_fract_y
_atom_site_fract_z
_atom_site_U_iso_or_equiv
_atom_site_adp_type
_atom_site_occupancy
C1     C     0.22958   0.88033   0.71021   0.00000  Uiso   1.00
C2     C     0.36285   0.83654   0.79480   0.00000  Uiso   1.00
C3     C     0.35206   0.76648   0.81469   0.00000  Uiso   1.00
C4     C     0.48728   0.73585   0.89551   0.00000  Uiso   1.00
C5     C     0.67277   0.66207   0.01794   0.00000  Uiso   1.00
C6     C     0.22123   0.95053   0.74587   0.00000  Uiso   1.00
C7     C     0.09136   0.97631   0.72461   0.00000  Uiso   1.00
C8     C     0.10737   0.04164   0.76424   0.00000  Uiso   1.00
C9     C     0.07296   0.14486   0.81066   0.00000  Uiso   1.00
C10    C     0.28237   0.90203   0.66409   0.00000  Uiso   1.00
C11    C     0.20389   0.88705   0.57406   0.00000  Uiso   1.00
C12    C     0.27136   0.91156   0.54484   0.00000  Uiso   1.00
C13    C     0.33188   0.93947   0.46428   0.00000  Uiso   1.00
C14    C     0.48892   0.95052   0.81838   0.00000  Uiso   1.00
C15    C     0.50371   0.87467   0.85355   0.00000  Uiso   1.00
C16    C     0.63898   0.84414   0.93437   0.00000  Uiso   1.00
C17    C     0.62839   0.77404   0.95437   0.00000  Uiso   1.00
C18    C     0.36209   0.98865   0.80463   0.00000  Uiso   1.00
C19    C     0.37829   0.05397   0.84429   0.00000  Uiso   1.00
C20    C     0.24848   0.07984   0.82311   0.00000  Uiso   1.00
C21    C     0.42324   0.94015   0.72285   0.00000  Uiso   1.00
C22    C     0.49083   0.96470   0.69375   0.00000  Uiso   1.00
C23    C     0.41247   0.94975   0.60370   0.00000  Uiso   1.00
H24    H     0.11991   0.85066   0.66446   0.00000  Uiso   1.00
H25    H     0.24302   0.73700   0.76920   0.00000  Uiso   1.00
H26    H     0.98236   0.94680   0.67913   0.00000  Uiso   1.00
H27    H     0.09489   0.85755   0.52862   0.00000  Uiso   1.00
H28    H     0.44162   0.62781   0.91125   0.00000  Uiso   1.00
H29    H     0.89200   0.07020   0.72131   0.00000  Uiso   1.00
H30    H     0.12927   0.88199   0.40391   0.00000  Uiso   1.00
H31    H     0.59859   0.98020   0.86413   0.00000  Uiso   1.00
H32    H     0.74797   0.87365   0.97983   0.00000  Uiso   1.00
H33    H     0.48731   0.08345   0.88976   0.00000  Uiso   1.00
H34    H     0.59983   0.99420   0.73924   0.00000  Uiso   1.00
H35    H     0.85146   0.73873   0.08220   0.00000  Uiso   1.00
H36    H     0.30182   0.18112   0.89226   0.00000  Uiso   1.00
H37    H     0.53911   0.99291   0.57486   0.00000  Uiso   1.00
O38    O     0.73616   0.61085   0.06925   0.00000  Uiso   1.00
O39    O     0.01506   0.19125   0.82004   0.00000  Uiso   1.00
O40    O     0.32637   0.94432   0.40362   0.00000  Uiso   1.00
N41    N     0.51758   0.66853   0.93560   0.00000  Uiso   1.00
N42    N     0.00372   0.08213   0.75803   0.00000  Uiso   1.00
N43    N     0.22553   0.90619   0.46128   0.00000  Uiso   1.00
N44    N     0.73811   0.72822   0.02758   0.00000  Uiso   1.00
N45    N     0.22425   0.14181   0.85002   0.00000  Uiso   1.00
N46    N     0.44606   0.96587   0.55326   0.00000  Uiso   1.00
C47    C     0.77042   0.38033   0.78979   0.00000  Uiso   1.00
C48    C     0.63715   0.33654   0.70520   0.00000  Uiso   1.00
C49    C     0.64794   0.26648   0.68531   0.00000  Uiso   1.00
C50    C     0.51272   0.23585   0.60449   0.00000  Uiso   1.00
C51    C     0.32723   0.16207   0.48206   0.00000  Uiso   1.00
C52    C     0.77877   0.45053   0.75413   0.00000  Uiso   1.00
C53    C     0.90864   0.47631   0.77539   0.00000  Uiso   1.00
C54    C     0.89263   0.54164   0.73576   0.00000  Uiso   1.00
C55    C     0.92704   0.64486   0.68934   0.00000  Uiso   1.00
C56    C     0.71763   0.40203   0.83591   0.00000  Uiso   1.00
C57    C     0.79611   0.38705   0.92594   0.00000  Uiso   1.00
C58    C     0.72864   0.41156   0.95516   0.00000  Uiso   1.00
C59    C     0.66812   0.43947   0.03572   0.00000  Uiso   1.00
C60    C     0.51108   0.45052   0.68162   0.00000  Uiso   1.00
C61    C     0.49629   0.37467   0.64645   0.00000  Uiso   1.00
C62    C     0.36102   0.34414   0.56563   0.00000  Uiso   1.00
C63    C     0.37161   0.27404   0.54563   0.00000  Uiso   1.00
C64    C     0.63791   0.48865   0.69537   0.00000  Uiso   1.00
C65    C     0.62171   0.55397   0.65571   0.00000  Uiso   1.00
C66    C     0.75152   0.57984   0.67689   0.00000  Uiso   1.00
C67    C     0.57676   0.44015   0.77715   0.00000  Uiso   1.00
C68    C     0.50917   0.46470   0.80625   0.00000  Uiso   1.00
C69    C     0.58753   0.44975   0.89630   0.00000  Uiso   1.00
H70    H     0.88009   0.35066   0.83554   0.00000  Uiso   1.00
H71    H     0.75698   0.23700   0.73080   0.00000  Uiso   1.00
H72    H     0.01764   0.44680   0.82087   0.00000  Uiso   1.00
H73    H     0.90511   0.35755   0.97138   0.00000  Uiso   1.00
H74    H     0.55838   0.12781   0.58875   0.00000  Uiso   1.00
H75    H     0.10800   0.57020   0.77869   0.00000  Uiso   1.00
H76    H     0.87073   0.38199   0.09609   0.00000  Uiso   1.00
H77    H     0.40141   0.48020   0.63587   0.00000  Uiso   1.00
H78    H     0.25203   0.37365   0.52017   0.00000  Uiso   1.00
H79    H     0.51269   0.58345   0.61024   0.00000  Uiso   1.00
H80    H     0.40017   0.49420   0.76076   0.00000  Uiso   1.00
H81    H     0.14854   0.23873   0.41780   0.00000  Uiso   1.00
H82    H     0.69818   0.68112   0.60774   0.00000  Uiso   1.00
H83    H     0.46089   0.49291   0.92514   0.00000  Uiso   1.00
O84    O     0.26384   0.11085   0.43075   0.00000  Uiso   1.00
O85    O     0.98494   0.69125   0.67996   0.00000  Uiso   1.00
O86    O     0.67363   0.44432   0.09638   0.00000  Uiso   1.00
N87    N     0.48242   0.16853   0.56440   0.00000  Uiso   1.00
N88    N     0.99628   0.58213   0.74197   0.00000  Uiso   1.00
N89    N     0.77447   0.40619   0.03872   0.00000  Uiso   1.00
N90    N     0.26189   0.22822   0.47242   0.00000  Uiso   1.00
N91    N     0.77575   0.64181   0.64998   0.00000  Uiso   1.00
N92    N     0.55394   0.46587   0.94674   0.00000  Uiso   1.00
C93    C     0.77042   0.11967   0.28979   0.00000  Uiso   1.00
C94    C     0.63715   0.16346   0.20520   0.00000  Uiso   1.00
C95    C     0.64794   0.23352   0.18531   0.00000  Uiso   1.00
C96    C     0.51272   0.26415   0.10449   0.00000  Uiso   1.00
C97    C     0.32723   0.33793   0.98206   0.00000  Uiso   1.00
C98    C     0.77877   0.04947   0.25413   0.00000  Uiso   1.00
C99    C     0.90864   0.02369   0.27539   0.00000  Uiso   1.00
C100   C     0.89263   0.95836   0.23576   0.00000  Uiso   1.00
C101   C     0.92704   0.85514   0.18934   0.00000  Uiso   1.00
C102   C     0.71763   0.09797   0.33591   0.00000  Uiso   1.00
C103   C     0.79611   0.11295   0.42594   0.00000  Uiso   1.00
C104   C     0.72864   0.08844   0.45516   0.00000  Uiso   1.00
C105   C     0.66812   0.06053   0.53572   0.00000  Uiso   1.00
C106   C     0.51108   0.04948   0.18162   0.00000  Uiso   1.00
C107   C     0.49629   0.12533   0.14645   0.00000  Uiso   1.00
C108   C     0.36102   0.15586   0.06563   0.00000  Uiso   1.00
C109   C     0.37161   0.22596   0.04563   0.00000  Uiso   1.00
C110   C     0.63791   0.01135   0.19537   0.00000  Uiso   1.00
C111   C     0.62171   0.94603   0.15571   0.00000  Uiso   1.00
C112   C     0.75152   0.92016   0.17689   0.00000  Uiso   1.00
C113   C     0.57676   0.05985   0.27715   0.00000  Uiso   1.00
C114   C     0.50917   0.03530   0.30625   0.00000  Uiso   1.00
C115   C     0.58753   0.05025   0.39630   0.00000  Uiso   1.00
H116   H     0.88009   0.14934   0.33554   0.00000  Uiso   1.00
H117   H     0.75698   0.26300   0.23080   0.00000  Uiso   1.00
H118   H     0.01764   0.05320   0.32087   0.00000  Uiso   1.00
H119   H     0.90511   0.14245   0.47138   0.00000  Uiso   1.00
H120   H     0.55838   0.37219   0.08875   0.00000  Uiso   1.00
H121   H     0.10800   0.92980   0.27869   0.00000  Uiso   1.00
H122   H     0.87073   0.11801   0.59609   0.00000  Uiso   1.00
H123   H     0.40141   0.01980   0.13587   0.00000  Uiso   1.00
H124   H     0.25203   0.12635   0.02017   0.00000  Uiso   1.00
H125   H     0.51269   0.91655   0.11024   0.00000  Uiso   1.00
H126   H     0.40017   0.00580   0.26076   0.00000  Uiso   1.00
H127   H     0.14854   0.26127   0.91780   0.00000  Uiso   1.00
H128   H     0.69818   0.81888   0.10774   0.00000  Uiso   1.00
H129   H     0.46089   0.00709   0.42514   0.00000  Uiso   1.00
O130   O     0.26384   0.38915   0.93075   0.00000  Uiso   1.00
O131   O     0.98494   0.80875   0.17996   0.00000  Uiso   1.00
O132   O     0.67363   0.05568   0.59638   0.00000  Uiso   1.00
N133   N     0.48242   0.33147   0.06440   0.00000  Uiso   1.00
N134   N     0.99628   0.91787   0.24197   0.00000  Uiso   1.00
N135   N     0.77447   0.09381   0.53872   0.00000  Uiso   1.00
N136   N     0.26189   0.27178   0.97242   0.00000  Uiso   1.00
N137   N     0.77575   0.85819   0.14998   0.00000  Uiso   1.00
N138   N     0.55394   0.03413   0.44674   0.00000  Uiso   1.00
C139   C     0.22958   0.61967   0.21021   0.00000  Uiso   1.00
C140   C     0.36285   0.66346   0.29480   0.00000  Uiso   1.00
C141   C     0.35206   0.73352   0.31469   0.00000  Uiso   1.00
C142   C     0.48728   0.76415   0.39551   0.00000  Uiso   1.00
C143   C     0.67277   0.83793   0.51794   0.00000  Uiso   1.00
C144   C     0.22123   0.54947   0.24587   0.00000  Uiso   1.00
C145   C     0.09136   0.52369   0.22461   0.00000  Uiso   1.00
C146   C     0.10737   0.45836   0.26424   0.00000  Uiso   1.00
C147   C     0.07296   0.35514   0.31066   0.00000  Uiso   1.00
C148   C     0.28237   0.59797   0.16409   0.00000  Uiso   1.00
C149   C     0.20389   0.61295   0.07406   0.00000  Uiso   1.00
C150   C     0.27136   0.58844   0.04484   0.00000  Uiso   1.00
C151   C     0.33188   0.56053   0.96428   0.00000  Uiso   1.00
C152   C     0.48892   0.54948   0.31838   0.00000  Uiso   1.00
C153   C     0.50371   0.62533   0.35355   0.00000  Uiso   1.00
C154   C     0.63898   0.65586   0.43437   0.00000  Uiso   1.00
C155   C     0.62839   0.72596   0.45437   0.00000  Uiso   1.00
C156   C     0.36209   0.51135   0.30463   0.00000  Uiso   1.00
C157   C     0.37829   0.44603   0.34429   0.00000  Uiso   1.00
C158   C     0.24848   0.42016   0.32311   0.00000  Uiso   1.00
C159   C     0.42324   0.55985   0.22285   0.00000  Uiso   1.00
C160   C     0.49083   0.53530   0.19375   0.00000  Uiso   1.00
C161   C     0.41247   0.55025   0.10370   0.00000  Uiso   1.00
H162   H     0.11991   0.64934   0.16446   0.00000  Uiso   1.00
H163   H     0.24302   0.76300   0.26920   0.00000  Uiso   1.00
H164   H     0.98236   0.55320   0.17913   0.00000  Uiso   1.00
H165   H     0.09489   0.64245   0.02862   0.00000  Uiso   1.00
H166   H     0.44162   0.87219   0.41125   0.00000  Uiso   1.00
H167   H     0.89200   0.42980   0.22131   0.00000  Uiso   1.00
H168   H     0.12927   0.61801   0.90391   0.00000  Uiso   1.00
H169   H     0.59859   0.51980   0.36413   0.00000  Uiso   1.00
H170   H     0.74797   0.62635   0.47983   0.00000  Uiso   1.00
H171   H     0.48731   0.41655   0.38976   0.00000  Uiso   1.00
H172   H     0.59983   0.50580   0.23924   0.00000  Uiso   1.00
H173   H     0.85146   0.76127   0.58220   0.00000  Uiso   1.00
H174   H     0.30182   0.31888   0.39226   0.00000  Uiso   1.00
H175   H     0.53911   0.50709   0.07486   0.00000  Uiso   1.00
O176   O     0.73616   0.88915   0.56925   0.00000  Uiso   1.00
O177   O     0.01506   0.30875   0.32004   0.00000  Uiso   1.00
O178   O     0.32637   0.55568   0.90362   0.00000  Uiso   1.00
N179   N     0.51758   0.83147   0.43560   0.00000  Uiso   1.00
N180   N     0.00372   0.41787   0.25803   0.00000  Uiso   1.00
N181   N     0.22553   0.59381   0.96128   0.00000  Uiso   1.00
N182   N     0.73811   0.77178   0.52758   0.00000  Uiso   1.00
N183   N     0.22425   0.35819   0.35002   0.00000  Uiso   1.00
N184   N     0.44606   0.53413   0.05326   0.00000  Uiso   1.00
