data_job_06984
_audit_creation_date              2018-12-19
_audit_creation_method            'Materials Studio'
_symmetry_space_group_name_H-M    'P1'
_symmetry_Int_Tables_number       1
_symmetry_cell_setting            triclinic
loop_
_symmetry_equiv_pos_as_xyz
  x,y,z
_cell_length_a                    22.8037
_cell_length_b                    23.6615
_cell_length_c                    23.9729
_cell_angle_alpha                 77.3463
_cell_angle_beta                  65.6383
_cell_angle_gamma                 110.5330
loop_
_atom_site_label
_atom_site_type_symbol
_atom_site_fract_x
_atom_site_fract_y
_atom_site_fract_z
_atom_site_U_iso_or_equiv
_atom_site_adp_type
_atom_site_occupancy
C1     C     0.51007   0.99247   0.61510   0.00000  Uiso   1.00
C2     C     0.55339   0.95691   0.59208   0.00000  Uiso   1.00
C3     C     0.56897   0.94344   0.53571   0.00000  Uiso   1.00
C4     C     0.60933   0.91041   0.52328   0.00000  Uiso   1.00
C5     C     0.67293   0.85802   0.48110   0.00000  Uiso   1.00
C6     C     0.44604   0.94495   0.68783   0.00000  Uiso   1.00
C7     C     0.37136   0.92144   0.71196   0.00000  Uiso   1.00
C8     C     0.32136   0.87835   0.78014   0.00000  Uiso   1.00
C9     C     0.21829   0.80744   0.88662   0.00000  Uiso   1.00
C10    C     0.56092   0.05176   0.61896   0.00000  Uiso   1.00
C11    C     0.58282   0.11805   0.58520   0.00000  Uiso   1.00
C12    C     0.62953   0.16488   0.59540   0.00000  Uiso   1.00
C13    C     0.70484   0.25981   0.59494   0.00000  Uiso   1.00
C14    C     0.55407   0.95775   0.69327   0.00000  Uiso   1.00
C15    C     0.57728   0.93804   0.63454   0.00000  Uiso   1.00
C16    C     0.61764   0.90502   0.62219   0.00000  Uiso   1.00
C17    C     0.63328   0.89151   0.56581   0.00000  Uiso   1.00
C18    C     0.46993   0.92609   0.73029   0.00000  Uiso   1.00
C19    C     0.42003   0.88302   0.79844   0.00000  Uiso   1.00
C20    C     0.34529   0.85945   0.82267   0.00000  Uiso   1.00
C21    C     0.58482   0.03290   0.66141   0.00000  Uiso   1.00
C22    C     0.63150   0.07963   0.67167   0.00000  Uiso   1.00
C23    C     0.65347   0.14599   0.63793   0.00000  Uiso   1.00
H24    H     0.49146   0.00715   0.58205   0.00000  Uiso   1.00
H25    H     0.55046   0.95804   0.50287   0.00000  Uiso   1.00
H26    H     0.35288   0.93605   0.67910   0.00000  Uiso   1.00
H27    H     0.56432   0.13263   0.55235   0.00000  Uiso   1.00
H28    H     0.62638   0.89525   0.43382   0.00000  Uiso   1.00
H29    H     0.20978   0.84890   0.80541   0.00000  Uiso   1.00
H30    H     0.65563   0.26343   0.53813   0.00000  Uiso   1.00
H31    H     0.57267   0.94306   0.72632   0.00000  Uiso   1.00
H32    H     0.63613   0.89043   0.65506   0.00000  Uiso   1.00
H33    H     0.43855   0.86844   0.83128   0.00000  Uiso   1.00
H34    H     0.64998   0.06502   0.70453   0.00000  Uiso   1.00
H35    H     0.69591   0.84038   0.55735   0.00000  Uiso   1.00
H36    H     0.27931   0.79403   0.92893   0.00000  Uiso   1.00
H37    H     0.72516   0.20855   0.66165   0.00000  Uiso   1.00
O38    O     0.70140   0.83433   0.44611   0.00000  Uiso   1.00
O39    O     0.15484   0.77353   0.93362   0.00000  Uiso   1.00
O40    O     0.73979   0.31738   0.58296   0.00000  Uiso   1.00
N41    N     0.63405   0.88957   0.47267   0.00000  Uiso   1.00
N42    N     0.24455   0.84623   0.82007   0.00000  Uiso   1.00
N43    N     0.66137   0.23377   0.57021   0.00000  Uiso   1.00
N44    N     0.67146   0.86004   0.53913   0.00000  Uiso   1.00
N45    N     0.28196   0.81670   0.88654   0.00000  Uiso   1.00
N46    N     0.69878   0.20425   0.63667   0.00000  Uiso   1.00
C47    C     0.29821   0.56327   0.19292   0.00000  Uiso   1.00
C48    C     0.21490   0.53163   0.22302   0.00000  Uiso   1.00
C49    C     0.18002   0.51996   0.18777   0.00000  Uiso   1.00
C50    C     0.10328   0.49053   0.22445   0.00000  Uiso   1.00
C51    C     0.98005   0.44404   0.26061   0.00000  Uiso   1.00
C52    C     0.31986   0.62329   0.20927   0.00000  Uiso   1.00
C53    C     0.37323   0.68868   0.16246   0.00000  Uiso   1.00
C54    C     0.38486   0.73640   0.18757   0.00000  Uiso   1.00
C55    C     0.42462   0.83220   0.20239   0.00000  Uiso   1.00
C56    C     0.30901   0.51331   0.23409   0.00000  Uiso   1.00
C57    C     0.35327   0.48624   0.20814   0.00000  Uiso   1.00
C58    C     0.35578   0.44139   0.25416   0.00000  Uiso   1.00
C59    C     0.37869   0.36643   0.30751   0.00000  Uiso   1.00
C60    C     0.22396   0.53176   0.32076   0.00000  Uiso   1.00
C61    C     0.17457   0.51452   0.29246   0.00000  Uiso   1.00
C62    C     0.09787   0.48510   0.32921   0.00000  Uiso   1.00
C63    C     0.06288   0.47339   0.29401   0.00000  Uiso   1.00
C64    C     0.27953   0.60617   0.27870   0.00000  Uiso   1.00
C65    C     0.29108   0.65382   0.30390   0.00000  Uiso   1.00
C66    C     0.34446   0.71926   0.25713   0.00000  Uiso   1.00
C67    C     0.26867   0.49619   0.30353   0.00000  Uiso   1.00
C68    C     0.27112   0.45138   0.34959   0.00000  Uiso   1.00
C69    C     0.31538   0.42425   0.32372   0.00000  Uiso   1.00
H70    H     0.32961   0.57660   0.13886   0.00000  Uiso   1.00
H71    H     0.21125   0.53322   0.13403   0.00000  Uiso   1.00
H72    H     0.40444   0.70190   0.10873   0.00000  Uiso   1.00
H73    H     0.38447   0.49950   0.15441   0.00000  Uiso   1.00
H74    H     0.06223   0.47759   0.15928   0.00000  Uiso   1.00
H75    H     0.46960   0.83328   0.10593   0.00000  Uiso   1.00
H76    H     0.42751   0.40647   0.20226   0.00000  Uiso   1.00
H77    H     0.19257   0.51844   0.37483   0.00000  Uiso   1.00
H78    H     0.06667   0.47186   0.38294   0.00000  Uiso   1.00
H79    H     0.25987   0.64055   0.35763   0.00000  Uiso   1.00
H80    H     0.23990   0.43815   0.40332   0.00000  Uiso   1.00
H81    H     0.94489   0.42780   0.36131   0.00000  Uiso   1.00
H82    H     0.35226   0.78349   0.30796   0.00000  Uiso   1.00
H83    H     0.31017   0.35668   0.40429   0.00000  Uiso   1.00
O84    O     0.92322   0.42313   0.26137   0.00000  Uiso   1.00
O85    O     0.45768   0.88977   0.19138   0.00000  Uiso   1.00
O86    O     0.40246   0.32981   0.31776   0.00000  Uiso   1.00
N87    N     0.05189   0.47225   0.20572   0.00000  Uiso   1.00
N88    N     0.43275   0.80480   0.15584   0.00000  Uiso   1.00
N89    N     0.39341   0.40579   0.24590   0.00000  Uiso   1.00
N90    N     0.98875   0.44546   0.31443   0.00000  Uiso   1.00
N91    N     0.36961   0.77801   0.26455   0.00000  Uiso   1.00
N92    N     0.33027   0.37899   0.35461   0.00000  Uiso   1.00
C93    C     0.04787   0.64134   0.59090   0.00000  Uiso   1.00
C94    C     0.10836   0.71060   0.53430   0.00000  Uiso   1.00
C95    C     0.13498   0.72951   0.46588   0.00000  Uiso   1.00
C96    C     0.19046   0.79519   0.42213   0.00000  Uiso   1.00
C97    C     0.28018   0.89586   0.33061   0.00000  Uiso   1.00
C98    C     0.08199   0.61908   0.62798   0.00000  Uiso   1.00
C99    C     0.08642   0.56105   0.63832   0.00000  Uiso   1.00
C100   C     0.11969   0.54969   0.67344   0.00000  Uiso   1.00
C101   C     0.16842   0.50826   0.72739   0.00000  Uiso   1.00
C102   C     0.98836   0.65121   0.64057   0.00000  Uiso   1.00
C103   C     0.91406   0.62018   0.66151   0.00000  Uiso   1.00
C104   C     0.86850   0.63585   0.70725   0.00000  Uiso   1.00
C105   C     0.77185   0.64431   0.78075   0.00000  Uiso   1.00
C106   C     0.09908   0.72435   0.63489   0.00000  Uiso   1.00
C107   C     0.13618   0.75568   0.55819   0.00000  Uiso   1.00
C108   C     0.19163   0.82135   0.51454   0.00000  Uiso   1.00
C109   C     0.21832   0.84036   0.44606   0.00000  Uiso   1.00
C110   C     0.10981   0.66417   0.65187   0.00000  Uiso   1.00
C111   C     0.14307   0.65289   0.68698   0.00000  Uiso   1.00
C112   C     0.14756   0.59485   0.69738   0.00000  Uiso   1.00
C113   C     0.01617   0.69630   0.66446   0.00000  Uiso   1.00
C114   C     0.97072   0.71202   0.71017   0.00000  Uiso   1.00
C115   C     0.89636   0.68102   0.73118   0.00000  Uiso   1.00
H116   H     0.02622   0.60623   0.57230   0.00000  Uiso   1.00
H117   H     0.11344   0.69460   0.44740   0.00000  Uiso   1.00
H118   H     0.06488   0.52616   0.61983   0.00000  Uiso   1.00
H119   H     0.89256   0.58529   0.64301   0.00000  Uiso   1.00
H120   H     0.22243   0.81245   0.31947   0.00000  Uiso   1.00
H121   H     0.12002   0.45728   0.68305   0.00000  Uiso   1.00
H122   H     0.75663   0.58195   0.73195   0.00000  Uiso   1.00
H123   H     0.12074   0.75945   0.65349   0.00000  Uiso   1.00
H124   H     0.21315   0.85623   0.53304   0.00000  Uiso   1.00
H125   H     0.16459   0.68779   0.70547   0.00000  Uiso   1.00
H126   H     0.99226   0.74691   0.72865   0.00000  Uiso   1.00
H127   H     0.30336   0.94363   0.38898   0.00000  Uiso   1.00
H128   H     0.20094   0.58846   0.75257   0.00000  Uiso   1.00
H129   H     0.83755   0.71314   0.80145   0.00000  Uiso   1.00
O130   O     0.32199   0.93894   0.27352   0.00000  Uiso   1.00
O131   O     0.18762   0.47296   0.75055   0.00000  Uiso   1.00
O132   O     0.71086   0.63653   0.81469   0.00000  Uiso   1.00
N133   N     0.22878   0.83005   0.35236   0.00000  Uiso   1.00
N134   N     0.13304   0.49799   0.69228   0.00000  Uiso   1.00
N135   N     0.79330   0.61453   0.73800   0.00000  Uiso   1.00
N136   N     0.27233   0.90064   0.38976   0.00000  Uiso   1.00
N137   N     0.17659   0.56858   0.72968   0.00000  Uiso   1.00
N138   N     0.83684   0.68512   0.77541   0.00000  Uiso   1.00
C139   C     0.81911   0.58806   0.17306   0.00000  Uiso   1.00
C140   C     0.76658   0.61636   0.18713   0.00000  Uiso   1.00
C141   C     0.73381   0.62582   0.15099   0.00000  Uiso   1.00
C142   C     0.68743   0.65232   0.17184   0.00000  Uiso   1.00
C143   C     0.60782   0.69372   0.18535   0.00000  Uiso   1.00
C144   C     0.78445   0.52817   0.23882   0.00000  Uiso   1.00
C145   C     0.76673   0.46350   0.24612   0.00000  Uiso   1.00
C146   C     0.73540   0.41576   0.31047   0.00000  Uiso   1.00
C147   C     0.68359   0.32028   0.40421   0.00000  Uiso   1.00
C148   C     0.88979   0.64036   0.16266   0.00000  Uiso   1.00
C149   C     0.96064   0.67000   0.10594   0.00000  Uiso   1.00
C150   C     0.01801   0.71670   0.10618   0.00000  Uiso   1.00
C151   C     0.12975   0.79540   0.08167   0.00000  Uiso   1.00
C152   C     0.79502   0.61828   0.27437   0.00000  Uiso   1.00
C153   C     0.75349   0.63277   0.24216   0.00000  Uiso   1.00
C154   C     0.70715   0.65926   0.26308   0.00000  Uiso   1.00
C155   C     0.67432   0.66876   0.22697   0.00000  Uiso   1.00
C156   C     0.77136   0.54459   0.29384   0.00000  Uiso   1.00
C157   C     0.74007   0.49694   0.35820   0.00000  Uiso   1.00
C158   C     0.72229   0.43221   0.36560   0.00000  Uiso   1.00
C159   C     0.87670   0.65677   0.21769   0.00000  Uiso   1.00
C160   C     0.93397   0.70344   0.21802   0.00000  Uiso   1.00
C161   C     0.00490   0.73315   0.16131   0.00000  Uiso   1.00
H162   H     0.82930   0.57528   0.13022   0.00000  Uiso   1.00
H163   H     0.74395   0.61310   0.10841   0.00000  Uiso   1.00
H164   H     0.77687   0.45081   0.20352   0.00000  Uiso   1.00
H165   H     0.97074   0.65728   0.06336   0.00000  Uiso   1.00
H166   H     0.64353   0.66226   0.10851   0.00000  Uiso   1.00
H167   H     0.71296   0.32006   0.30905   0.00000  Uiso   1.00
H168   H     0.12179   0.75544   0.01350   0.00000  Uiso   1.00
H169   H     0.78483   0.63106   0.31721   0.00000  Uiso   1.00
H170   H     0.69703   0.67196   0.30566   0.00000  Uiso   1.00
H171   H     0.72995   0.50966   0.40078   0.00000  Uiso   1.00
H172   H     0.92383   0.71613   0.26062   0.00000  Uiso   1.00
H173   H     0.60545   0.71003   0.26861   0.00000  Uiso   1.00
H174   H     0.67488   0.36782   0.46916   0.00000  Uiso   1.00
H175   H     0.08371   0.80320   0.17360   0.00000  Uiso   1.00
O176   O     0.56752   0.71202   0.17760   0.00000  Uiso   1.00
O177   O     0.65862   0.26307   0.44070   0.00000  Uiso   1.00
O178   O     0.19500   0.83427   0.05294   0.00000  Uiso   1.00
N179   N     0.64662   0.66790   0.14777   0.00000  Uiso   1.00
N180   N     0.71153   0.34796   0.33527   0.00000  Uiso   1.00
N181   N     0.09375   0.75499   0.05896   0.00000  Uiso   1.00
N182   N     0.62613   0.69361   0.23391   0.00000  Uiso   1.00
N183   N     0.69104   0.37367   0.42141   0.00000  Uiso   1.00
N184   N     0.07326   0.78069   0.14510   0.00000  Uiso   1.00
C185   C     0.59907   0.63690   0.58781   0.00000  Uiso   1.00
C186   C     0.59984   0.57149   0.59567   0.00000  Uiso   1.00
C187   C     0.61269   0.54686   0.54695   0.00000  Uiso   1.00
C188   C     0.61107   0.48610   0.56394   0.00000  Uiso   1.00
C189   C     0.61443   0.38985   0.56648   0.00000  Uiso   1.00
C190   C     0.65607   0.67669   0.60176   0.00000  Uiso   1.00
C191   C     0.71618   0.74051   0.55815   0.00000  Uiso   1.00
C192   C     0.76188   0.76831   0.58027   0.00000  Uiso   1.00
C193   C     0.85250   0.83539   0.59228   0.00000  Uiso   1.00
C194   C     0.52369   0.61861   0.64606   0.00000  Uiso   1.00
C195   C     0.47249   0.63362   0.63970   0.00000  Uiso   1.00
C196   C     0.40674   0.61254   0.69911   0.00000  Uiso   1.00
C197   C     0.29182   0.58945   0.77990   0.00000  Uiso   1.00
C198   C     0.57335   0.57281   0.70464   0.00000  Uiso   1.00
C199   C     0.58588   0.53668   0.65913   0.00000  Uiso   1.00
C200   C     0.58423   0.47594   0.67620   0.00000  Uiso   1.00
C201   C     0.59707   0.45122   0.62750   0.00000  Uiso   1.00
C202   C     0.64210   0.64188   0.66521   0.00000  Uiso   1.00
C203   C     0.68772   0.66959   0.68740   0.00000  Uiso   1.00
C204   C     0.74789   0.73343   0.64384   0.00000  Uiso   1.00
C205   C     0.50972   0.58380   0.70951   0.00000  Uiso   1.00
C206   C     0.44404   0.56270   0.76895   0.00000  Uiso   1.00
C207   C     0.39275   0.57766   0.76268   0.00000  Uiso   1.00
H208   H     0.60995   0.66401   0.53841   0.00000  Uiso   1.00
H209   H     0.62350   0.57382   0.49784   0.00000  Uiso   1.00
H210   H     0.72697   0.76744   0.50905   0.00000  Uiso   1.00
H211   H     0.48332   0.66056   0.59058   0.00000  Uiso   1.00
H212   H     0.63239   0.45848   0.48084   0.00000  Uiso   1.00
H213   H     0.85055   0.86674   0.50448   0.00000  Uiso   1.00
H214   H     0.33677   0.64137   0.67641   0.00000  Uiso   1.00
H215   H     0.56248   0.54571   0.75404   0.00000  Uiso   1.00
H216   H     0.57342   0.44901   0.72531   0.00000  Uiso   1.00
H217   H     0.67689   0.64264   0.73651   0.00000  Uiso   1.00
H218   H     0.43324   0.53576   0.81804   0.00000  Uiso   1.00
H219   H     0.59175   0.35719   0.66546   0.00000  Uiso   1.00
H220   H     0.80990   0.76546   0.68910   0.00000  Uiso   1.00
H221   H     0.29612   0.54008   0.86103   0.00000  Uiso   1.00
O222   O     0.62015   0.34637   0.55035   0.00000  Uiso   1.00
O223   O     0.90635   0.88201   0.58137   0.00000  Uiso   1.00
O224   O     0.23228   0.58632   0.80693   0.00000  Uiso   1.00
N225   N     0.62131   0.44790   0.52824   0.00000  Uiso   1.00
N226   N     0.82528   0.82960   0.55034   0.00000  Uiso   1.00
N227   N     0.34494   0.61892   0.71108   0.00000  Uiso   1.00
N228   N     0.59944   0.39340   0.62758   0.00000  Uiso   1.00
N229   N     0.80341   0.77510   0.64968   0.00000  Uiso   1.00
N230   N     0.32307   0.56441   0.81042   0.00000  Uiso   1.00
C231   C     0.66206   0.21843   0.99686   0.00000  Uiso   1.00
C232   C     0.74341   0.26226   0.93969   0.00000  Uiso   1.00
C233   C     0.77176   0.27443   0.87212   0.00000  Uiso   1.00
C234   C     0.84775   0.31596   0.82765   0.00000  Uiso   1.00
C235   C     0.96708   0.37974   0.73547   0.00000  Uiso   1.00
C236   C     0.64141   0.26258   0.02953   0.00000  Uiso   1.00
C237   C     0.58398   0.27501   0.03750   0.00000  Uiso   1.00
C238   C     0.57410   0.31681   0.06865   0.00000  Uiso   1.00
C239   C     0.53503   0.38104   0.11599   0.00000  Uiso   1.00
C240   C     0.65930   0.16618   0.04958   0.00000  Uiso   1.00
C241   C     0.61691   0.09755   0.07443   0.00000  Uiso   1.00
C242   C     0.62209   0.05818   0.12248   0.00000  Uiso   1.00
C243   C     0.61080   0.97273   0.20095   0.00000  Uiso   1.00
C244   C     0.74661   0.27055   0.03804   0.00000  Uiso   1.00
C245   C     0.78933   0.29057   0.96206   0.00000  Uiso   1.00
C246   C     0.86530   0.33209   0.91768   0.00000  Uiso   1.00
C247   C     0.89376   0.34432   0.85005   0.00000  Uiso   1.00
C248   C     0.68733   0.29088   0.05189   0.00000  Uiso   1.00
C249   C     0.67753   0.33267   0.08305   0.00000  Uiso   1.00
C250   C     0.62011   0.34516   0.09106   0.00000  Uiso   1.00
C251   C     0.70523   0.19448   0.07194   0.00000  Uiso   1.00
C252   C     0.71046   0.15521   0.11997   0.00000  Uiso   1.00
C253   C     0.66809   0.08654   0.14488   0.00000  Uiso   1.00
H254   H     0.62630   0.19640   0.97946   0.00000  Uiso   1.00
H255   H     0.73620   0.25252   0.85484   0.00000  Uiso   1.00
H256   H     0.54845   0.25309   0.02019   0.00000  Uiso   1.00
H257   H     0.58138   0.07566   0.05711   0.00000  Uiso   1.00
H258   H     0.87829   0.32725   0.72653   0.00000  Uiso   1.00
H259   H     0.48239   0.32844   0.07521   0.00000  Uiso   1.00
H260   H     0.55183   0.95429   0.15306   0.00000  Uiso   1.00
H261   H     0.78236   0.29258   0.05545   0.00000  Uiso   1.00
H262   H     0.90083   0.35399   0.93500   0.00000  Uiso   1.00
H263   H     0.71308   0.35456   0.10035   0.00000  Uiso   1.00
H264   H     0.74601   0.17713   0.13727   0.00000  Uiso   1.00
H265   H     0.01191   0.40961   0.79159   0.00000  Uiso   1.00
H266   H     0.61600   0.41079   0.14027   0.00000  Uiso   1.00
H267   H     0.68545   0.03665   0.21812   0.00000  Uiso   1.00
O268   O     0.02021   0.40710   0.67845   0.00000  Uiso   1.00
O269   O     0.50080   0.40865   0.13592   0.00000  Uiso   1.00
O270   O     0.59190   0.91778   0.23805   0.00000  Uiso   1.00
N271   N     0.89348   0.33819   0.75838   0.00000  Uiso   1.00
N272   N     0.52335   0.33931   0.08436   0.00000  Uiso   1.00
N273   N     0.58825   0.98952   0.15716   0.00000  Uiso   1.00
N274   N     0.96538   0.38251   0.79338   0.00000  Uiso   1.00
N275   N     0.59525   0.38363   0.11937   0.00000  Uiso   1.00
N276   N     0.66015   0.03383   0.19217   0.00000  Uiso   1.00
C277   C     0.56885   0.12745   0.39499   0.00000  Uiso   1.00
C278   C     0.52748   0.16658   0.40234   0.00000  Uiso   1.00
C279   C     0.49018   0.17418   0.46026   0.00000  Uiso   1.00
C280   C     0.45583   0.21188   0.45675   0.00000  Uiso   1.00
C281   C     0.39118   0.26825   0.47719   0.00000  Uiso   1.00
C282   C     0.64790   0.17633   0.33498   0.00000  Uiso   1.00
C283   C     0.71184   0.19211   0.33626   0.00000  Uiso   1.00
C284   C     0.77885   0.23800   0.27604   0.00000  Uiso   1.00
C285   C     0.90115   0.30947   0.19188   0.00000  Uiso   1.00
C286   C     0.53485   0.07607   0.37279   0.00000  Uiso   1.00
C287   C     0.50375   0.00756   0.40584   0.00000  Uiso   1.00
C288   C     0.47560   0.96904   0.37744   0.00000  Uiso   1.00
C289   C     0.42238   0.88484   0.35198   0.00000  Uiso   1.00
C290   C     0.57419   0.18089   0.28577   0.00000  Uiso   1.00
C291   C     0.53038   0.19561   0.34302   0.00000  Uiso   1.00
C292   C     0.49608   0.23330   0.33942   0.00000  Uiso   1.00
C293   C     0.45873   0.24095   0.39732   0.00000  Uiso   1.00
C294   C     0.65080   0.20535   0.27566   0.00000  Uiso   1.00
C295   C     0.71774   0.25123   0.21542   0.00000  Uiso   1.00
C296   C     0.78176   0.26708   0.21661   0.00000  Uiso   1.00
C297   C     0.53774   0.10509   0.31346   0.00000  Uiso   1.00
C298   C     0.50965   0.06668   0.28500   0.00000  Uiso   1.00
C299   C     0.47851   0.99812   0.31801   0.00000  Uiso   1.00
H300   H     0.56660   0.10486   0.44117   0.00000  Uiso   1.00
H301   H     0.48795   0.15172   0.50616   0.00000  Uiso   1.00
H302   H     0.70957   0.16964   0.38217   0.00000  Uiso   1.00
H303   H     0.50152   0.98512   0.45174   0.00000  Uiso   1.00
H304   H     0.40206   0.21649   0.55204   0.00000  Uiso   1.00
H305   H     0.86936   0.25425   0.29061   0.00000  Uiso   1.00
H306   H     0.43063   0.86515   0.43731   0.00000  Uiso   1.00
H307   H     0.57645   0.20348   0.23958   0.00000  Uiso   1.00
H308   H     0.49834   0.25575   0.29351   0.00000  Uiso   1.00
H309   H     0.71996   0.27368   0.16952   0.00000  Uiso   1.00
H310   H     0.51190   0.08915   0.23910   0.00000  Uiso   1.00
H311   H     0.41049   0.30093   0.37945   0.00000  Uiso   1.00
H312   H     0.87779   0.33870   0.11801   0.00000  Uiso   1.00
H313   H     0.43906   0.94960   0.26472   0.00000  Uiso   1.00
O314   O     0.35473   0.29133   0.50485   0.00000  Uiso   1.00
O315   O     0.96781   0.34087   0.16186   0.00000  Uiso   1.00
O316   O     0.39221   0.83038   0.35433   0.00000  Uiso   1.00
N317   N     0.41475   0.22918   0.50402   0.00000  Uiso   1.00
N318   N     0.85165   0.26450   0.25960   0.00000  Uiso   1.00
N319   N     0.44149   0.90072   0.39675   0.00000  Uiso   1.00
N320   N     0.41929   0.27461   0.41115   0.00000  Uiso   1.00
N321   N     0.85618   0.30993   0.16673   0.00000  Uiso   1.00
N322   N     0.44603   0.94616   0.30388   0.00000  Uiso   1.00
C323   C     0.44124   0.59120   0.99844   0.00000  Uiso   1.00
C324   C     0.51389   0.64343   0.98503   0.00000  Uiso   1.00
C325   C     0.52300   0.66539   0.03154   0.00000  Uiso   1.00
C326   C     0.59390   0.71347   0.00943   0.00000  Uiso   1.00
C327   C     0.69765   0.79071   0.99871   0.00000  Uiso   1.00
C328   C     0.45584   0.53721   0.98137   0.00000  Uiso   1.00
C329   C     0.41615   0.46987   0.02479   0.00000  Uiso   1.00
C330   C     0.43819   0.42852   0.99959   0.00000  Uiso   1.00
C331   C     0.45178   0.34086   0.98316   0.00000  Uiso   1.00
C332   C     0.42917   0.62470   0.94532   0.00000  Uiso   1.00
C333   C     0.36705   0.63091   0.95844   0.00000  Uiso   1.00
C334   C     0.36663   0.66321   0.90289   0.00000  Uiso   1.00
C335   C     0.33881   0.71139   0.83049   0.00000  Uiso   1.00
C336   C     0.55094   0.63752   0.87646   0.00000  Uiso   1.00
C337   C     0.57347   0.66858   0.91878   0.00000  Uiso   1.00
C338   C     0.64438   0.71664   0.89659   0.00000  Uiso   1.00
C339   C     0.65360   0.73867   0.94306   0.00000  Uiso   1.00
C340   C     0.51543   0.56236   0.91512   0.00000  Uiso   1.00
C341   C     0.53752   0.52111   0.88984   0.00000  Uiso   1.00
C342   C     0.49788   0.45373   0.93322   0.00000  Uiso   1.00
C343   C     0.48876   0.64986   0.87907   0.00000  Uiso   1.00
C344   C     0.48843   0.68216   0.82348   0.00000  Uiso   1.00
C345   C     0.42632   0.68841   0.83651   0.00000  Uiso   1.00
H346   H     0.39485   0.57161   0.05002   0.00000  Uiso   1.00
H347   H     0.47688   0.64591   0.08281   0.00000  Uiso   1.00
H348   H     0.37004   0.45041   0.07606   0.00000  Uiso   1.00
H349   H     0.32095   0.61143   0.00971   0.00000  Uiso   1.00
H350   H     0.59410   0.73935   0.08996   0.00000  Uiso   1.00
H351   H     0.36881   0.32714   0.07571   0.00000  Uiso   1.00
H352   H     0.26529   0.66668   0.93582   0.00000  Uiso   1.00
H353   H     0.59733   0.65710   0.82488   0.00000  Uiso   1.00
H354   H     0.69048   0.73610   0.84532   0.00000  Uiso   1.00
H355   H     0.58364   0.54060   0.83856   0.00000  Uiso   1.00
H356   H     0.53455   0.70162   0.77222   0.00000  Uiso   1.00
H357   H     0.76747   0.81255   0.89720   0.00000  Uiso   1.00
H358   H     0.54217   0.40034   0.88295   0.00000  Uiso   1.00
H359   H     0.43866   0.73988   0.74306   0.00000  Uiso   1.00
O360   O     0.73841   0.82636   0.01110   0.00000  Uiso   1.00
O361   O     0.44282   0.28555   0.99240   0.00000  Uiso   1.00
O362   O     0.30702   0.73102   0.80886   0.00000  Uiso   1.00
N363   N     0.62212   0.74575   0.04179   0.00000  Uiso   1.00
N364   N     0.41149   0.36036   0.02847   0.00000  Uiso   1.00
N365   N     0.31470   0.67778   0.89768   0.00000  Uiso   1.00
N366   N     0.71541   0.78514   0.93806   0.00000  Uiso   1.00
N367   N     0.50478   0.39974   0.92475   0.00000  Uiso   1.00
N368   N     0.40799   0.71717   0.79395   0.00000  Uiso   1.00
C369   C     0.05901   0.65624   0.36034   0.00000  Uiso   1.00
C370   C     0.00809   0.58590   0.41739   0.00000  Uiso   1.00
C371   C     0.02258   0.55660   0.46327   0.00000  Uiso   1.00
C372   C     0.96897   0.49180   0.51169   0.00000  Uiso   1.00
C373   C     0.89989   0.38780   0.59993   0.00000  Uiso   1.00
C374   C     0.01319   0.69129   0.37133   0.00000  Uiso   1.00
C375   C     0.03198   0.75060   0.37847   0.00000  Uiso   1.00
C376   C     0.98266   0.77452   0.38812   0.00000  Uiso   1.00
C377   C     0.92153   0.83417   0.40479   0.00000  Uiso   1.00
C378   C     0.07283   0.64837   0.29534   0.00000  Uiso   1.00
C379   C     0.14176   0.67160   0.23858   0.00000  Uiso   1.00
C380   C     0.14265   0.65940   0.18424   0.00000  Uiso   1.00
C381   C     0.17412   0.65240   0.08294   0.00000  Uiso   1.00
C382   C     0.93803   0.59327   0.36477   0.00000  Uiso   1.00
C383   C     0.94238   0.55170   0.41979   0.00000  Uiso   1.00
C384   C     0.88873   0.48693   0.46816   0.00000  Uiso   1.00
C385   C     0.90314   0.45753   0.51410   0.00000  Uiso   1.00
C386   C     0.94749   0.65709   0.37373   0.00000  Uiso   1.00
C387   C     0.89813   0.68093   0.38336   0.00000  Uiso   1.00
C388   C     0.91683   0.74026   0.39052   0.00000  Uiso   1.00
C389   C     0.00712   0.61417   0.29774   0.00000  Uiso   1.00
C390   C     0.00791   0.60193   0.24348   0.00000  Uiso   1.00
C391   C     0.07683   0.62513   0.18665   0.00000  Uiso   1.00
H392   H     0.11016   0.68287   0.35847   0.00000  Uiso   1.00
H393   H     0.07343   0.58308   0.46140   0.00000  Uiso   1.00
H394   H     0.08283   0.77706   0.37660   0.00000  Uiso   1.00
H395   H     0.19259   0.69807   0.23674   0.00000  Uiso   1.00
H396   H     0.00372   0.45738   0.57658   0.00000  Uiso   1.00
H397   H     0.02356   0.86640   0.39777   0.00000  Uiso   1.00
H398   H     0.25501   0.69983   0.10284   0.00000  Uiso   1.00
H399   H     0.88687   0.56664   0.36664   0.00000  Uiso   1.00
H400   H     0.83789   0.46047   0.47001   0.00000  Uiso   1.00
H401   H     0.84729   0.65445   0.38522   0.00000  Uiso   1.00
H402   H     0.95705   0.57546   0.24535   0.00000  Uiso   1.00
H403   H     0.81255   0.35787   0.58357   0.00000  Uiso   1.00
H404   H     0.83238   0.76689   0.40476   0.00000  Uiso   1.00
H405   H     0.06384   0.60032   0.10983   0.00000  Uiso   1.00
O406   O     0.87993   0.33989   0.64794   0.00000  Uiso   1.00
O407   O     0.90596   0.87652   0.41334   0.00000  Uiso   1.00
O408   O     0.20962   0.65798   0.02640   0.00000  Uiso   1.00
N409   N     0.96546   0.44852   0.56403   0.00000  Uiso   1.00
N410   N     0.98400   0.83093   0.39686   0.00000  Uiso   1.00
N411   N     0.20039   0.67522   0.12112   0.00000  Uiso   1.00
N412   N     0.86259   0.39498   0.56779   0.00000  Uiso   1.00
N413   N     0.88113   0.77738   0.40062   0.00000  Uiso   1.00
N414   N     0.09752   0.62167   0.12488   0.00000  Uiso   1.00
C415   C     0.86672   0.57338   0.97547   0.00000  Uiso   1.00
C416   C     0.92794   0.56465   0.98016   0.00000  Uiso   1.00
C417   C     0.92293   0.53353   0.03948   0.00000  Uiso   1.00
C418   C     0.98505   0.53065   0.03305   0.00000  Uiso   1.00
C419   C     0.07026   0.51297   0.05000   0.00000  Uiso   1.00
C420   C     0.89985   0.64810   0.93661   0.00000  Uiso   1.00
C421   C     0.87121   0.68715   0.95931   0.00000  Uiso   1.00
C422   C     0.90969   0.75452   0.91621   0.00000  Uiso   1.00
C423   C     0.95126   0.86639   0.86552   0.00000  Uiso   1.00
C424   C     0.85411   0.54181   0.92952   0.00000  Uiso   1.00
C425   C     0.78701   0.49150   0.94625   0.00000  Uiso   1.00
C426   C     0.78697   0.46939   0.89718   0.00000  Uiso   1.00
C427   C     0.75751   0.41623   0.83549   0.00000  Uiso   1.00
C428   C     0.98596   0.62360   0.85856   0.00000  Uiso   1.00
C429   C     0.99270   0.59193   0.91666   0.00000  Uiso   1.00
C430   C     0.05485   0.58909   0.91014   0.00000  Uiso   1.00
C431   C     0.04993   0.55797   0.96944   0.00000  Uiso   1.00
C432   C     0.96461   0.67538   0.87311   0.00000  Uiso   1.00
C433   C     0.00314   0.74271   0.82996   0.00000  Uiso   1.00
C434   C     0.97457   0.78184   0.85259   0.00000  Uiso   1.00
C435   C     0.91887   0.56909   0.86602   0.00000  Uiso   1.00
C436   C     0.91893   0.54706   0.81691   0.00000  Uiso   1.00
C437   C     0.85185   0.49672   0.83356   0.00000  Uiso   1.00
H438   H     0.81630   0.55215   0.02490   0.00000  Uiso   1.00
H439   H     0.87280   0.51243   0.08862   0.00000  Uiso   1.00
H440   H     0.82109   0.66602   0.00845   0.00000  Uiso   1.00
H441   H     0.73690   0.47040   0.99540   0.00000  Uiso   1.00
H442   H     0.96400   0.48045   0.13125   0.00000  Uiso   1.00
H443   H     0.85496   0.80430   0.96220   0.00000  Uiso   1.00
H444   H     0.67742   0.39180   0.93468   0.00000  Uiso   1.00
H445   H     0.03639   0.64484   0.80912   0.00000  Uiso   1.00
H446   H     0.10496   0.61020   0.86099   0.00000  Uiso   1.00
H447   H     0.05325   0.76380   0.78082   0.00000  Uiso   1.00
H448   H     0.96906   0.56818   0.76777   0.00000  Uiso   1.00
H449   H     0.15244   0.55981   0.94650   0.00000  Uiso   1.00
H450   H     0.04339   0.88366   0.77745   0.00000  Uiso   1.00
H451   H     0.86586   0.47116   0.74993   0.00000  Uiso   1.00
O452   O     0.09937   0.49569   0.07689   0.00000  Uiso   1.00
O453   O     0.95630   0.92057   0.85510   0.00000  Uiso   1.00
O454   O     0.72338   0.37937   0.81900   0.00000  Uiso   1.00
N455   N     0.99894   0.50386   0.08065   0.00000  Uiso   1.00
N456   N     0.89699   0.80665   0.92260   0.00000  Uiso   1.00
N457   N     0.73101   0.42101   0.89687   0.00000  Uiso   1.00
N458   N     0.10033   0.54657   0.98124   0.00000  Uiso   1.00
N459   N     0.99839   0.84935   0.82319   0.00000  Uiso   1.00
N460   N     0.83240   0.46371   0.79746   0.00000  Uiso   1.00
C461   C     0.48334   0.54246   0.45456   0.00000  Uiso   1.00
C462   C     0.50524   0.61591   0.42616   0.00000  Uiso   1.00
C463   C     0.55197   0.66582   0.43354   0.00000  Uiso   1.00
C464   C     0.56509   0.72987   0.40378   0.00000  Uiso   1.00
C465   C     0.60400   0.84184   0.36516   0.00000  Uiso   1.00
C466   C     0.39884   0.50367   0.49810   0.00000  Uiso   1.00
C467   C     0.35611   0.45920   0.56596   0.00000  Uiso   1.00
C468   C     0.27966   0.42876   0.59675   0.00000  Uiso   1.00
C469   C     0.15338   0.36644   0.66980   0.00000  Uiso   1.00
C470   C     0.50495   0.52494   0.39422   0.00000  Uiso   1.00
C471   C     0.55144   0.49834   0.37475   0.00000  Uiso   1.00
C472   C     0.56431   0.48579   0.31810   0.00000  Uiso   1.00
C473   C     0.60279   0.45649   0.22987   0.00000  Uiso   1.00
C474   C     0.42353   0.56746   0.38858   0.00000  Uiso   1.00
C475   C     0.47275   0.62948   0.39033   0.00000  Uiso   1.00
C476   C     0.48580   0.69347   0.36054   0.00000  Uiso   1.00
C477   C     0.53255   0.74347   0.36788   0.00000  Uiso   1.00
C478   C     0.36635   0.51724   0.46226   0.00000  Uiso   1.00
C479   C     0.28994   0.48686   0.49296   0.00000  Uiso   1.00
C480   C     0.24711   0.44236   0.56085   0.00000  Uiso   1.00
C481   C     0.47247   0.53851   0.35838   0.00000  Uiso   1.00
C482   C     0.48527   0.52600   0.30175   0.00000  Uiso   1.00
C483   C     0.53176   0.49939   0.28220   0.00000  Uiso   1.00
H484   H     0.50863   0.53189   0.48247   0.00000  Uiso   1.00
H485   H     0.57710   0.65529   0.46128   0.00000  Uiso   1.00
H486   H     0.38127   0.44870   0.59367   0.00000  Uiso   1.00
H487   H     0.57657   0.48784   0.40250   0.00000  Uiso   1.00
H488   H     0.63866   0.79809   0.42202   0.00000  Uiso   1.00
H489   H     0.22575   0.36246   0.70116   0.00000  Uiso   1.00
H490   H     0.63756   0.44499   0.29803   0.00000  Uiso   1.00
H491   H     0.39824   0.57803   0.36068   0.00000  Uiso   1.00
H492   H     0.46065   0.70397   0.33282   0.00000  Uiso   1.00
H493   H     0.26482   0.49737   0.46521   0.00000  Uiso   1.00
H494   H     0.46012   0.53651   0.27403   0.00000  Uiso   1.00
H495   H     0.54415   0.83759   0.31775   0.00000  Uiso   1.00
H496   H     0.13123   0.40197   0.59690   0.00000  Uiso   1.00
H497   H     0.54305   0.48449   0.19377   0.00000  Uiso   1.00
O498   O     0.63443   0.89985   0.35377   0.00000  Uiso   1.00
O499   O     0.09271   0.32832   0.71999   0.00000  Uiso   1.00
O500   O     0.63300   0.43659   0.19109   0.00000  Uiso   1.00
N501   N     0.60786   0.79010   0.40129   0.00000  Uiso   1.00
N502   N     0.22181   0.38283   0.66228   0.00000  Uiso   1.00
N503   N     0.60681   0.45997   0.28540   0.00000  Uiso   1.00
N504   N     0.55701   0.81136   0.34518   0.00000  Uiso   1.00
N505   N     0.17095   0.40409   0.60617   0.00000  Uiso   1.00
N506   N     0.55595   0.48122   0.22929   0.00000  Uiso   1.00
C507   C     0.56750   0.03365   0.94652   0.00000  Uiso   1.00
C508   C     0.48609   0.98308   0.99981   0.00000  Uiso   1.00
C509   C     0.45140   0.96648   0.06867   0.00000  Uiso   1.00
C510   C     0.37654   0.91903   0.10902   0.00000  Uiso   1.00
C511   C     0.25604   0.84501   0.19596   0.00000  Uiso   1.00
C512   C     0.59951   0.99615   0.91079   0.00000  Uiso   1.00
C513   C     0.66020   0.99055   0.90480   0.00000  Uiso   1.00
C514   C     0.68082   0.95412   0.87020   0.00000  Uiso   1.00
C515   C     0.73644   0.90044   0.81890   0.00000  Uiso   1.00
C516   C     0.56805   0.08421   0.89416   0.00000  Uiso   1.00
C517   C     0.60230   0.15265   0.87417   0.00000  Uiso   1.00
C518   C     0.59645   0.19036   0.82557   0.00000  Uiso   1.00
C519   C     0.60323   0.27339   0.74845   0.00000  Uiso   1.00
C520   C     0.49623   0.97893   0.89573   0.00000  Uiso   1.00
C521   C     0.44739   0.95336   0.97221   0.00000  Uiso   1.00
C522   C     0.37256   0.90593   0.01247   0.00000  Uiso   1.00
C523   C     0.33776   0.88926   0.08138   0.00000  Uiso   1.00
C524   C     0.56081   0.96643   0.88320   0.00000  Uiso   1.00
C525   C     0.58135   0.93001   0.84860   0.00000  Uiso   1.00
C526   C     0.64204   0.92435   0.84256   0.00000  Uiso   1.00
C527   C     0.52934   0.05449   0.86657   0.00000  Uiso   1.00
C528   C     0.52345   0.09210   0.81798   0.00000  Uiso   1.00
C529   C     0.55768   0.16058   0.79793   0.00000  Uiso   1.00
H530   H     0.59763   0.05679   0.96800   0.00000  Uiso   1.00
H531   H     0.48138   0.98949   0.09000   0.00000  Uiso   1.00
H532   H     0.69014   0.01357   0.92615   0.00000  Uiso   1.00
H533   H     0.63225   0.17563   0.89554   0.00000  Uiso   1.00
H534   H     0.33542   0.90174   0.21310   0.00000  Uiso   1.00
H535   H     0.77563   0.95253   0.86759   0.00000  Uiso   1.00
H536   H     0.65356   0.29429   0.80303   0.00000  Uiso   1.00
H537   H     0.46610   0.95578   0.87424   0.00000  Uiso   1.00
H538   H     0.34262   0.88293   0.99111   0.00000  Uiso   1.00
H539   H     0.55139   0.90701   0.82725   0.00000  Uiso   1.00
H540   H     0.49349   0.06908   0.79664   0.00000  Uiso   1.00
H541   H     0.22280   0.81526   0.13284   0.00000  Uiso   1.00
H542   H     0.66301   0.86605   0.78732   0.00000  Uiso   1.00
H543   H     0.54094   0.20780   0.72276   0.00000  Uiso   1.00
O544   O     0.20026   0.81238   0.25154   0.00000  Uiso   1.00
O545   O     0.77781   0.87903   0.79823   0.00000  Uiso   1.00
O546   O     0.61764   0.32740   0.71353   0.00000  Uiso   1.00
N547   N     0.32586   0.89139   0.17817   0.00000  Uiso   1.00
N548   N     0.73742   0.93887   0.85515   0.00000  Uiso   1.00
N549   N     0.62331   0.25838   0.79478   0.00000  Uiso   1.00
N550   N     0.26526   0.84486   0.13498   0.00000  Uiso   1.00
N551   N     0.67682   0.89234   0.81195   0.00000  Uiso   1.00
N552   N     0.56271   0.21185   0.75159   0.00000  Uiso   1.00
