data_job_01396
_audit_creation_date              2018-12-19
_audit_creation_method            'Materials Studio'
_symmetry_space_group_name_H-M    'P1'
_symmetry_Int_Tables_number       1
_symmetry_cell_setting            triclinic
loop_
_symmetry_equiv_pos_as_xyz
  x,y,z
_cell_length_a                    23.5343
_cell_length_b                    18.5074
_cell_length_c                    15.8471
_cell_angle_alpha                 90.0000
_cell_angle_beta                  90.0000
_cell_angle_gamma                 90.0000
loop_
_atom_site_label
_atom_site_type_symbol
_atom_site_fract_x
_atom_site_fract_y
_atom_site_fract_z
_atom_site_U_iso_or_equiv
_atom_site_adp_type
_atom_site_occupancy
C1     C     0.63594   0.85592   0.44620   0.00000  Uiso   1.00
C2     C     0.61182   0.90289   0.51668   0.00000  Uiso   1.00
C3     C     0.58517   0.96917   0.50616   0.00000  Uiso   1.00
C4     C     0.56607   0.00369   0.57859   0.00000  Uiso   1.00
C5     C     0.52754   0.08131   0.67587   0.00000  Uiso   1.00
C6     C     0.69827   0.84355   0.46819   0.00000  Uiso   1.00
C7     C     0.74429   0.85992   0.41689   0.00000  Uiso   1.00
C8     C     0.79796   0.84448   0.44850   0.00000  Uiso   1.00
C9     C     0.89363   0.82992   0.47046   0.00000  Uiso   1.00
C10    C     0.60697   0.78259   0.45468   0.00000  Uiso   1.00
C11    C     0.57625   0.74769   0.39202   0.00000  Uiso   1.00
C12    C     0.55306   0.68091   0.41224   0.00000  Uiso   1.00
C13    C     0.50698   0.57170   0.41324   0.00000  Uiso   1.00
C14    C     0.64941   0.79937   0.59354   0.00000  Uiso   1.00
C15    C     0.61914   0.87217   0.59671   0.00000  Uiso   1.00
C16    C     0.60008   0.90660   0.66917   0.00000  Uiso   1.00
C17    C     0.57340   0.97292   0.65876   0.00000  Uiso   1.00
C18    C     0.70559   0.81283   0.54822   0.00000  Uiso   1.00
C19    C     0.75920   0.79736   0.57990   0.00000  Uiso   1.00
C20    C     0.80529   0.81371   0.52867   0.00000  Uiso   1.00
C21    C     0.61429   0.75187   0.53471   0.00000  Uiso   1.00
C22    C     0.59115   0.68513   0.55504   0.00000  Uiso   1.00
C23    C     0.56039   0.65014   0.49242   0.00000  Uiso   1.00
H24    H     0.63025   0.87984   0.38389   0.00000  Uiso   1.00
H25    H     0.57952   0.99293   0.44422   0.00000  Uiso   1.00
H26    H     0.73862   0.88369   0.35496   0.00000  Uiso   1.00
H27    H     0.57060   0.77148   0.33010   0.00000  Uiso   1.00
H28    H     0.52653   0.10477   0.54640   0.00000  Uiso   1.00
H29    H     0.86199   0.87442   0.35818   0.00000  Uiso   1.00
H30    H     0.50768   0.63780   0.30574   0.00000  Uiso   1.00
H31    H     0.65511   0.77546   0.65584   0.00000  Uiso   1.00
H32    H     0.60574   0.88282   0.73110   0.00000  Uiso   1.00
H33    H     0.76484   0.77358   0.64184   0.00000  Uiso   1.00
H34    H     0.59682   0.66137   0.61697   0.00000  Uiso   1.00
H35    H     0.54781   0.01541   0.77924   0.00000  Uiso   1.00
H36    H     0.88328   0.78505   0.59102   0.00000  Uiso   1.00
H37    H     0.52897   0.54843   0.53859   0.00000  Uiso   1.00
O38    O     0.50427   0.13261   0.70742   0.00000  Uiso   1.00
O39    O     0.94437   0.83038   0.46047   0.00000  Uiso   1.00
O40    O     0.47953   0.51994   0.39168   0.00000  Uiso   1.00
N41    N     0.53830   0.06900   0.59087   0.00000  Uiso   1.00
N42    N     0.85194   0.85364   0.41490   0.00000  Uiso   1.00
N43    N     0.52070   0.63241   0.36587   0.00000  Uiso   1.00
N44    N     0.54976   0.02091   0.71616   0.00000  Uiso   1.00
N45    N     0.86339   0.80555   0.54019   0.00000  Uiso   1.00
N46    N     0.53216   0.58433   0.49116   0.00000  Uiso   1.00
C47    C     0.86406   0.14408   0.44620   0.00000  Uiso   1.00
C48    C     0.88818   0.09711   0.51668   0.00000  Uiso   1.00
C49    C     0.91483   0.03083   0.50616   0.00000  Uiso   1.00
C50    C     0.93393   0.99631   0.57859   0.00000  Uiso   1.00
C51    C     0.97246   0.91869   0.67587   0.00000  Uiso   1.00
C52    C     0.80173   0.15645   0.46819   0.00000  Uiso   1.00
C53    C     0.75571   0.14008   0.41689   0.00000  Uiso   1.00
C54    C     0.70204   0.15552   0.44850   0.00000  Uiso   1.00
C55    C     0.60637   0.17008   0.47046   0.00000  Uiso   1.00
C56    C     0.89303   0.21741   0.45468   0.00000  Uiso   1.00
C57    C     0.92375   0.25231   0.39202   0.00000  Uiso   1.00
C58    C     0.94694   0.31909   0.41224   0.00000  Uiso   1.00
C59    C     0.99302   0.42830   0.41324   0.00000  Uiso   1.00
C60    C     0.85059   0.20063   0.59354   0.00000  Uiso   1.00
C61    C     0.88086   0.12783   0.59671   0.00000  Uiso   1.00
C62    C     0.89992   0.09340   0.66917   0.00000  Uiso   1.00
C63    C     0.92660   0.02708   0.65876   0.00000  Uiso   1.00
C64    C     0.79441   0.18717   0.54822   0.00000  Uiso   1.00
C65    C     0.74080   0.20264   0.57990   0.00000  Uiso   1.00
C66    C     0.69471   0.18629   0.52867   0.00000  Uiso   1.00
C67    C     0.88571   0.24813   0.53471   0.00000  Uiso   1.00
C68    C     0.90885   0.31487   0.55504   0.00000  Uiso   1.00
C69    C     0.93961   0.34986   0.49242   0.00000  Uiso   1.00
H70    H     0.86975   0.12016   0.38389   0.00000  Uiso   1.00
H71    H     0.92048   0.00707   0.44422   0.00000  Uiso   1.00
H72    H     0.76138   0.11631   0.35496   0.00000  Uiso   1.00
H73    H     0.92940   0.22852   0.33010   0.00000  Uiso   1.00
H74    H     0.97347   0.89523   0.54640   0.00000  Uiso   1.00
H75    H     0.63801   0.12558   0.35818   0.00000  Uiso   1.00
H76    H     0.99232   0.36220   0.30574   0.00000  Uiso   1.00
H77    H     0.84489   0.22454   0.65584   0.00000  Uiso   1.00
H78    H     0.89426   0.11718   0.73110   0.00000  Uiso   1.00
H79    H     0.73516   0.22642   0.64184   0.00000  Uiso   1.00
H80    H     0.90318   0.33863   0.61697   0.00000  Uiso   1.00
H81    H     0.95219   0.98459   0.77924   0.00000  Uiso   1.00
H82    H     0.61672   0.21495   0.59102   0.00000  Uiso   1.00
H83    H     0.97103   0.45157   0.53859   0.00000  Uiso   1.00
O84    O     0.99573   0.86739   0.70742   0.00000  Uiso   1.00
O85    O     0.55563   0.16962   0.46047   0.00000  Uiso   1.00
O86    O     0.02047   0.48006   0.39168   0.00000  Uiso   1.00
N87    N     0.96170   0.93100   0.59087   0.00000  Uiso   1.00
N88    N     0.64806   0.14636   0.41490   0.00000  Uiso   1.00
N89    N     0.97930   0.36759   0.36587   0.00000  Uiso   1.00
N90    N     0.95024   0.97909   0.71616   0.00000  Uiso   1.00
N91    N     0.63661   0.19445   0.54019   0.00000  Uiso   1.00
N92    N     0.96784   0.41567   0.49116   0.00000  Uiso   1.00
C93    C     0.86406   0.35592   0.05380   0.00000  Uiso   1.00
C94    C     0.88818   0.40289   0.98332   0.00000  Uiso   1.00
C95    C     0.91483   0.46917   0.99384   0.00000  Uiso   1.00
C96    C     0.93393   0.50369   0.92141   0.00000  Uiso   1.00
C97    C     0.97246   0.58131   0.82413   0.00000  Uiso   1.00
C98    C     0.80173   0.34355   0.03181   0.00000  Uiso   1.00
C99    C     0.75571   0.35992   0.08311   0.00000  Uiso   1.00
C100   C     0.70204   0.34448   0.05150   0.00000  Uiso   1.00
C101   C     0.60637   0.32992   0.02954   0.00000  Uiso   1.00
C102   C     0.89303   0.28259   0.04532   0.00000  Uiso   1.00
C103   C     0.92375   0.24769   0.10798   0.00000  Uiso   1.00
C104   C     0.94694   0.18091   0.08776   0.00000  Uiso   1.00
C105   C     0.99302   0.07170   0.08676   0.00000  Uiso   1.00
C106   C     0.85059   0.29937   0.90646   0.00000  Uiso   1.00
C107   C     0.88086   0.37217   0.90329   0.00000  Uiso   1.00
C108   C     0.89992   0.40660   0.83083   0.00000  Uiso   1.00
C109   C     0.92660   0.47292   0.84124   0.00000  Uiso   1.00
C110   C     0.79441   0.31283   0.95178   0.00000  Uiso   1.00
C111   C     0.74080   0.29736   0.92010   0.00000  Uiso   1.00
C112   C     0.69471   0.31371   0.97133   0.00000  Uiso   1.00
C113   C     0.88571   0.25187   0.96529   0.00000  Uiso   1.00
C114   C     0.90885   0.18513   0.94496   0.00000  Uiso   1.00
C115   C     0.93961   0.15014   0.00758   0.00000  Uiso   1.00
H116   H     0.86975   0.37984   0.11611   0.00000  Uiso   1.00
H117   H     0.92048   0.49293   0.05578   0.00000  Uiso   1.00
H118   H     0.76138   0.38369   0.14504   0.00000  Uiso   1.00
H119   H     0.92940   0.27148   0.16990   0.00000  Uiso   1.00
H120   H     0.97347   0.60477   0.95360   0.00000  Uiso   1.00
H121   H     0.63801   0.37442   0.14182   0.00000  Uiso   1.00
H122   H     0.99232   0.13780   0.19426   0.00000  Uiso   1.00
H123   H     0.84489   0.27546   0.84416   0.00000  Uiso   1.00
H124   H     0.89426   0.38282   0.76890   0.00000  Uiso   1.00
H125   H     0.73516   0.27358   0.85816   0.00000  Uiso   1.00
H126   H     0.90318   0.16137   0.88303   0.00000  Uiso   1.00
H127   H     0.95219   0.51541   0.72076   0.00000  Uiso   1.00
H128   H     0.61672   0.28505   0.90898   0.00000  Uiso   1.00
H129   H     0.97103   0.04843   0.96141   0.00000  Uiso   1.00
O130   O     0.99573   0.63261   0.79258   0.00000  Uiso   1.00
O131   O     0.55563   0.33038   0.03953   0.00000  Uiso   1.00
O132   O     0.02047   0.01994   0.10832   0.00000  Uiso   1.00
N133   N     0.96170   0.56900   0.90913   0.00000  Uiso   1.00
N134   N     0.64806   0.35364   0.08510   0.00000  Uiso   1.00
N135   N     0.97930   0.13241   0.13413   0.00000  Uiso   1.00
N136   N     0.95024   0.52091   0.78384   0.00000  Uiso   1.00
N137   N     0.63661   0.30555   0.95981   0.00000  Uiso   1.00
N138   N     0.96784   0.08433   0.00884   0.00000  Uiso   1.00
C139   C     0.63594   0.64408   0.05380   0.00000  Uiso   1.00
C140   C     0.61182   0.59711   0.98332   0.00000  Uiso   1.00
C141   C     0.58517   0.53083   0.99384   0.00000  Uiso   1.00
C142   C     0.56607   0.49631   0.92141   0.00000  Uiso   1.00
C143   C     0.52754   0.41869   0.82413   0.00000  Uiso   1.00
C144   C     0.69827   0.65645   0.03181   0.00000  Uiso   1.00
C145   C     0.74429   0.64008   0.08311   0.00000  Uiso   1.00
C146   C     0.79796   0.65552   0.05150   0.00000  Uiso   1.00
C147   C     0.89363   0.67008   0.02954   0.00000  Uiso   1.00
C148   C     0.60697   0.71741   0.04532   0.00000  Uiso   1.00
C149   C     0.57625   0.75231   0.10798   0.00000  Uiso   1.00
C150   C     0.55306   0.81909   0.08776   0.00000  Uiso   1.00
C151   C     0.50698   0.92830   0.08676   0.00000  Uiso   1.00
C152   C     0.64941   0.70063   0.90646   0.00000  Uiso   1.00
C153   C     0.61914   0.62783   0.90329   0.00000  Uiso   1.00
C154   C     0.60008   0.59340   0.83083   0.00000  Uiso   1.00
C155   C     0.57340   0.52708   0.84124   0.00000  Uiso   1.00
C156   C     0.70559   0.68717   0.95178   0.00000  Uiso   1.00
C157   C     0.75920   0.70264   0.92010   0.00000  Uiso   1.00
C158   C     0.80529   0.68629   0.97133   0.00000  Uiso   1.00
C159   C     0.61429   0.74813   0.96529   0.00000  Uiso   1.00
C160   C     0.59115   0.81487   0.94496   0.00000  Uiso   1.00
C161   C     0.56039   0.84986   0.00758   0.00000  Uiso   1.00
H162   H     0.63025   0.62016   0.11611   0.00000  Uiso   1.00
H163   H     0.57952   0.50707   0.05578   0.00000  Uiso   1.00
H164   H     0.73862   0.61631   0.14504   0.00000  Uiso   1.00
H165   H     0.57060   0.72852   0.16990   0.00000  Uiso   1.00
H166   H     0.52653   0.39523   0.95360   0.00000  Uiso   1.00
H167   H     0.86199   0.62558   0.14182   0.00000  Uiso   1.00
H168   H     0.50768   0.86220   0.19426   0.00000  Uiso   1.00
H169   H     0.65511   0.72454   0.84416   0.00000  Uiso   1.00
H170   H     0.60574   0.61718   0.76890   0.00000  Uiso   1.00
H171   H     0.76484   0.72642   0.85816   0.00000  Uiso   1.00
H172   H     0.59682   0.83863   0.88303   0.00000  Uiso   1.00
H173   H     0.54781   0.48459   0.72076   0.00000  Uiso   1.00
H174   H     0.88328   0.71495   0.90898   0.00000  Uiso   1.00
H175   H     0.52897   0.95157   0.96141   0.00000  Uiso   1.00
O176   O     0.50427   0.36739   0.79258   0.00000  Uiso   1.00
O177   O     0.94437   0.66962   0.03953   0.00000  Uiso   1.00
O178   O     0.47953   0.98006   0.10832   0.00000  Uiso   1.00
N179   N     0.53830   0.43100   0.90913   0.00000  Uiso   1.00
N180   N     0.85194   0.64636   0.08510   0.00000  Uiso   1.00
N181   N     0.52070   0.86759   0.13413   0.00000  Uiso   1.00
N182   N     0.54976   0.47909   0.78384   0.00000  Uiso   1.00
N183   N     0.86339   0.69445   0.95981   0.00000  Uiso   1.00
N184   N     0.53216   0.91567   0.00884   0.00000  Uiso   1.00
C185   C     0.36406   0.14408   0.55380   0.00000  Uiso   1.00
C186   C     0.38818   0.09711   0.48332   0.00000  Uiso   1.00
C187   C     0.41483   0.03083   0.49384   0.00000  Uiso   1.00
C188   C     0.43393   0.99631   0.42141   0.00000  Uiso   1.00
C189   C     0.47246   0.91869   0.32413   0.00000  Uiso   1.00
C190   C     0.30173   0.15645   0.53181   0.00000  Uiso   1.00
C191   C     0.25571   0.14008   0.58311   0.00000  Uiso   1.00
C192   C     0.20204   0.15552   0.55150   0.00000  Uiso   1.00
C193   C     0.10637   0.17008   0.52954   0.00000  Uiso   1.00
C194   C     0.39303   0.21741   0.54532   0.00000  Uiso   1.00
C195   C     0.42375   0.25231   0.60798   0.00000  Uiso   1.00
C196   C     0.44694   0.31909   0.58776   0.00000  Uiso   1.00
C197   C     0.49302   0.42830   0.58676   0.00000  Uiso   1.00
C198   C     0.35059   0.20063   0.40646   0.00000  Uiso   1.00
C199   C     0.38086   0.12783   0.40329   0.00000  Uiso   1.00
C200   C     0.39992   0.09340   0.33083   0.00000  Uiso   1.00
C201   C     0.42660   0.02708   0.34124   0.00000  Uiso   1.00
C202   C     0.29441   0.18717   0.45178   0.00000  Uiso   1.00
C203   C     0.24080   0.20264   0.42010   0.00000  Uiso   1.00
C204   C     0.19471   0.18629   0.47133   0.00000  Uiso   1.00
C205   C     0.38571   0.24813   0.46529   0.00000  Uiso   1.00
C206   C     0.40885   0.31487   0.44496   0.00000  Uiso   1.00
C207   C     0.43961   0.34986   0.50758   0.00000  Uiso   1.00
H208   H     0.36975   0.12016   0.61611   0.00000  Uiso   1.00
H209   H     0.42048   0.00707   0.55578   0.00000  Uiso   1.00
H210   H     0.26138   0.11631   0.64504   0.00000  Uiso   1.00
H211   H     0.42940   0.22852   0.66990   0.00000  Uiso   1.00
H212   H     0.47347   0.89523   0.45360   0.00000  Uiso   1.00
H213   H     0.13801   0.12558   0.64182   0.00000  Uiso   1.00
H214   H     0.49232   0.36220   0.69426   0.00000  Uiso   1.00
H215   H     0.34489   0.22454   0.34416   0.00000  Uiso   1.00
H216   H     0.39426   0.11718   0.26890   0.00000  Uiso   1.00
H217   H     0.23516   0.22642   0.35816   0.00000  Uiso   1.00
H218   H     0.40318   0.33863   0.38303   0.00000  Uiso   1.00
H219   H     0.45219   0.98459   0.22076   0.00000  Uiso   1.00
H220   H     0.11672   0.21495   0.40898   0.00000  Uiso   1.00
H221   H     0.47103   0.45157   0.46141   0.00000  Uiso   1.00
O222   O     0.49573   0.86739   0.29258   0.00000  Uiso   1.00
O223   O     0.05563   0.16962   0.53953   0.00000  Uiso   1.00
O224   O     0.52047   0.48006   0.60832   0.00000  Uiso   1.00
N225   N     0.46170   0.93100   0.40913   0.00000  Uiso   1.00
N226   N     0.14806   0.14636   0.58510   0.00000  Uiso   1.00
N227   N     0.47930   0.36759   0.63413   0.00000  Uiso   1.00
N228   N     0.45024   0.97909   0.28384   0.00000  Uiso   1.00
N229   N     0.13661   0.19445   0.45981   0.00000  Uiso   1.00
N230   N     0.46784   0.41567   0.50884   0.00000  Uiso   1.00
C231   C     0.13594   0.85592   0.55380   0.00000  Uiso   1.00
C232   C     0.11182   0.90289   0.48332   0.00000  Uiso   1.00
C233   C     0.08517   0.96917   0.49384   0.00000  Uiso   1.00
C234   C     0.06607   0.00369   0.42141   0.00000  Uiso   1.00
C235   C     0.02754   0.08131   0.32413   0.00000  Uiso   1.00
C236   C     0.19827   0.84355   0.53181   0.00000  Uiso   1.00
C237   C     0.24429   0.85992   0.58311   0.00000  Uiso   1.00
C238   C     0.29796   0.84448   0.55150   0.00000  Uiso   1.00
C239   C     0.39363   0.82992   0.52954   0.00000  Uiso   1.00
C240   C     0.10697   0.78259   0.54532   0.00000  Uiso   1.00
C241   C     0.07625   0.74769   0.60798   0.00000  Uiso   1.00
C242   C     0.05306   0.68091   0.58776   0.00000  Uiso   1.00
C243   C     0.00698   0.57170   0.58676   0.00000  Uiso   1.00
C244   C     0.14941   0.79937   0.40646   0.00000  Uiso   1.00
C245   C     0.11914   0.87217   0.40329   0.00000  Uiso   1.00
C246   C     0.10008   0.90660   0.33083   0.00000  Uiso   1.00
C247   C     0.07340   0.97292   0.34124   0.00000  Uiso   1.00
C248   C     0.20559   0.81283   0.45178   0.00000  Uiso   1.00
C249   C     0.25920   0.79736   0.42010   0.00000  Uiso   1.00
C250   C     0.30529   0.81371   0.47133   0.00000  Uiso   1.00
C251   C     0.11429   0.75187   0.46529   0.00000  Uiso   1.00
C252   C     0.09115   0.68513   0.44496   0.00000  Uiso   1.00
C253   C     0.06039   0.65014   0.50758   0.00000  Uiso   1.00
H254   H     0.13025   0.87984   0.61611   0.00000  Uiso   1.00
H255   H     0.07952   0.99293   0.55578   0.00000  Uiso   1.00
H256   H     0.23862   0.88369   0.64504   0.00000  Uiso   1.00
H257   H     0.07060   0.77148   0.66990   0.00000  Uiso   1.00
H258   H     0.02653   0.10477   0.45360   0.00000  Uiso   1.00
H259   H     0.36199   0.87442   0.64182   0.00000  Uiso   1.00
H260   H     0.00768   0.63780   0.69426   0.00000  Uiso   1.00
H261   H     0.15511   0.77546   0.34416   0.00000  Uiso   1.00
H262   H     0.10574   0.88282   0.26890   0.00000  Uiso   1.00
H263   H     0.26484   0.77358   0.35816   0.00000  Uiso   1.00
H264   H     0.09682   0.66137   0.38303   0.00000  Uiso   1.00
H265   H     0.04781   0.01541   0.22076   0.00000  Uiso   1.00
H266   H     0.38328   0.78505   0.40898   0.00000  Uiso   1.00
H267   H     0.02897   0.54843   0.46141   0.00000  Uiso   1.00
O268   O     0.00427   0.13261   0.29258   0.00000  Uiso   1.00
O269   O     0.44437   0.83038   0.53953   0.00000  Uiso   1.00
O270   O     0.97953   0.51994   0.60832   0.00000  Uiso   1.00
N271   N     0.03830   0.06900   0.40913   0.00000  Uiso   1.00
N272   N     0.35194   0.85364   0.58510   0.00000  Uiso   1.00
N273   N     0.02070   0.63241   0.63413   0.00000  Uiso   1.00
N274   N     0.04976   0.02091   0.28384   0.00000  Uiso   1.00
N275   N     0.36339   0.80555   0.45981   0.00000  Uiso   1.00
N276   N     0.03216   0.58433   0.50884   0.00000  Uiso   1.00
C277   C     0.13594   0.64408   0.94620   0.00000  Uiso   1.00
C278   C     0.11182   0.59711   0.01668   0.00000  Uiso   1.00
C279   C     0.08517   0.53083   0.00616   0.00000  Uiso   1.00
C280   C     0.06607   0.49631   0.07859   0.00000  Uiso   1.00
C281   C     0.02754   0.41869   0.17587   0.00000  Uiso   1.00
C282   C     0.19827   0.65645   0.96819   0.00000  Uiso   1.00
C283   C     0.24429   0.64008   0.91689   0.00000  Uiso   1.00
C284   C     0.29796   0.65552   0.94850   0.00000  Uiso   1.00
C285   C     0.39363   0.67008   0.97046   0.00000  Uiso   1.00
C286   C     0.10697   0.71741   0.95468   0.00000  Uiso   1.00
C287   C     0.07625   0.75231   0.89202   0.00000  Uiso   1.00
C288   C     0.05306   0.81909   0.91224   0.00000  Uiso   1.00
C289   C     0.00698   0.92830   0.91324   0.00000  Uiso   1.00
C290   C     0.14941   0.70063   0.09354   0.00000  Uiso   1.00
C291   C     0.11914   0.62783   0.09671   0.00000  Uiso   1.00
C292   C     0.10008   0.59340   0.16917   0.00000  Uiso   1.00
C293   C     0.07340   0.52708   0.15876   0.00000  Uiso   1.00
C294   C     0.20559   0.68717   0.04822   0.00000  Uiso   1.00
C295   C     0.25920   0.70264   0.07990   0.00000  Uiso   1.00
C296   C     0.30529   0.68629   0.02867   0.00000  Uiso   1.00
C297   C     0.11429   0.74813   0.03471   0.00000  Uiso   1.00
C298   C     0.09115   0.81487   0.05504   0.00000  Uiso   1.00
C299   C     0.06039   0.84986   0.99242   0.00000  Uiso   1.00
H300   H     0.13025   0.62016   0.88389   0.00000  Uiso   1.00
H301   H     0.07952   0.50707   0.94422   0.00000  Uiso   1.00
H302   H     0.23862   0.61631   0.85496   0.00000  Uiso   1.00
H303   H     0.07060   0.72852   0.83010   0.00000  Uiso   1.00
H304   H     0.02653   0.39523   0.04640   0.00000  Uiso   1.00
H305   H     0.36199   0.62558   0.85818   0.00000  Uiso   1.00
H306   H     0.00768   0.86220   0.80574   0.00000  Uiso   1.00
H307   H     0.15511   0.72454   0.15584   0.00000  Uiso   1.00
H308   H     0.10574   0.61718   0.23110   0.00000  Uiso   1.00
H309   H     0.26484   0.72642   0.14184   0.00000  Uiso   1.00
H310   H     0.09682   0.83863   0.11697   0.00000  Uiso   1.00
H311   H     0.04781   0.48459   0.27924   0.00000  Uiso   1.00
H312   H     0.38328   0.71495   0.09102   0.00000  Uiso   1.00
H313   H     0.02897   0.95157   0.03859   0.00000  Uiso   1.00
O314   O     0.00427   0.36739   0.20742   0.00000  Uiso   1.00
O315   O     0.44437   0.66962   0.96047   0.00000  Uiso   1.00
O316   O     0.97953   0.98006   0.89168   0.00000  Uiso   1.00
N317   N     0.03830   0.43100   0.09087   0.00000  Uiso   1.00
N318   N     0.35194   0.64636   0.91490   0.00000  Uiso   1.00
N319   N     0.02070   0.86759   0.86587   0.00000  Uiso   1.00
N320   N     0.04976   0.47909   0.21616   0.00000  Uiso   1.00
N321   N     0.36339   0.69445   0.04019   0.00000  Uiso   1.00
N322   N     0.03216   0.91567   0.99116   0.00000  Uiso   1.00
C323   C     0.36406   0.35592   0.94620   0.00000  Uiso   1.00
C324   C     0.38818   0.40289   0.01668   0.00000  Uiso   1.00
C325   C     0.41483   0.46917   0.00616   0.00000  Uiso   1.00
C326   C     0.43393   0.50369   0.07859   0.00000  Uiso   1.00
C327   C     0.47246   0.58131   0.17587   0.00000  Uiso   1.00
C328   C     0.30173   0.34355   0.96819   0.00000  Uiso   1.00
C329   C     0.25571   0.35992   0.91689   0.00000  Uiso   1.00
C330   C     0.20204   0.34448   0.94850   0.00000  Uiso   1.00
C331   C     0.10637   0.32992   0.97046   0.00000  Uiso   1.00
C332   C     0.39303   0.28259   0.95468   0.00000  Uiso   1.00
C333   C     0.42375   0.24769   0.89202   0.00000  Uiso   1.00
C334   C     0.44694   0.18091   0.91224   0.00000  Uiso   1.00
C335   C     0.49302   0.07170   0.91324   0.00000  Uiso   1.00
C336   C     0.35059   0.29937   0.09354   0.00000  Uiso   1.00
C337   C     0.38086   0.37217   0.09671   0.00000  Uiso   1.00
C338   C     0.39992   0.40660   0.16917   0.00000  Uiso   1.00
C339   C     0.42660   0.47292   0.15876   0.00000  Uiso   1.00
C340   C     0.29441   0.31283   0.04822   0.00000  Uiso   1.00
C341   C     0.24080   0.29736   0.07990   0.00000  Uiso   1.00
C342   C     0.19471   0.31371   0.02867   0.00000  Uiso   1.00
C343   C     0.38571   0.25187   0.03471   0.00000  Uiso   1.00
C344   C     0.40885   0.18513   0.05504   0.00000  Uiso   1.00
C345   C     0.43961   0.15014   0.99242   0.00000  Uiso   1.00
H346   H     0.36975   0.37984   0.88389   0.00000  Uiso   1.00
H347   H     0.42048   0.49293   0.94422   0.00000  Uiso   1.00
H348   H     0.26138   0.38369   0.85496   0.00000  Uiso   1.00
H349   H     0.42940   0.27148   0.83010   0.00000  Uiso   1.00
H350   H     0.47347   0.60477   0.04640   0.00000  Uiso   1.00
H351   H     0.13801   0.37442   0.85818   0.00000  Uiso   1.00
H352   H     0.49232   0.13780   0.80574   0.00000  Uiso   1.00
H353   H     0.34489   0.27546   0.15584   0.00000  Uiso   1.00
H354   H     0.39426   0.38282   0.23110   0.00000  Uiso   1.00
H355   H     0.23516   0.27358   0.14184   0.00000  Uiso   1.00
H356   H     0.40318   0.16137   0.11697   0.00000  Uiso   1.00
H357   H     0.45219   0.51541   0.27924   0.00000  Uiso   1.00
H358   H     0.11672   0.28505   0.09102   0.00000  Uiso   1.00
H359   H     0.47103   0.04843   0.03859   0.00000  Uiso   1.00
O360   O     0.49573   0.63261   0.20742   0.00000  Uiso   1.00
O361   O     0.05563   0.33038   0.96047   0.00000  Uiso   1.00
O362   O     0.52047   0.01994   0.89168   0.00000  Uiso   1.00
N363   N     0.46170   0.56900   0.09087   0.00000  Uiso   1.00
N364   N     0.14806   0.35364   0.91490   0.00000  Uiso   1.00
N365   N     0.47930   0.13241   0.86587   0.00000  Uiso   1.00
N366   N     0.45024   0.52091   0.21616   0.00000  Uiso   1.00
N367   N     0.13661   0.30555   0.04019   0.00000  Uiso   1.00
N368   N     0.46784   0.08433   0.99116   0.00000  Uiso   1.00
