data_job_03462
_audit_creation_date              2018-12-19
_audit_creation_method            'Materials Studio'
_symmetry_space_group_name_H-M    'P1'
_symmetry_Int_Tables_number       1
_symmetry_cell_setting            triclinic
loop_
_symmetry_equiv_pos_as_xyz
  x,y,z
_cell_length_a                    14.4904
_cell_length_b                    13.0051
_cell_length_c                    21.7022
_cell_angle_alpha                 90.0000
_cell_angle_beta                  66.8757
_cell_angle_gamma                 90.0000
loop_
_atom_site_label
_atom_site_type_symbol
_atom_site_fract_x
_atom_site_fract_y
_atom_site_fract_z
_atom_site_U_iso_or_equiv
_atom_site_adp_type
_atom_site_occupancy
C1     C     0.69822   0.57301   0.32548   0.00000  Uiso   1.00
C2     C     0.74996   0.49648   0.35463   0.00000  Uiso   1.00
C3     C     0.70718   0.40772   0.38971   0.00000  Uiso   1.00
C4     C     0.76691   0.34788   0.41228   0.00000  Uiso   1.00
C5     C     0.83218   0.22482   0.45942   0.00000  Uiso   1.00
C6     C     0.70524   0.67723   0.35555   0.00000  Uiso   1.00
C7     C     0.62485   0.74043   0.39140   0.00000  Uiso   1.00
C8     C     0.64694   0.83275   0.41475   0.00000  Uiso   1.00
C9     C     0.64278   0.99033   0.46327   0.00000  Uiso   1.00
C10    C     0.76429   0.58067   0.25097   0.00000  Uiso   1.00
C11    C     0.73356   0.56272   0.19888   0.00000  Uiso   1.00
C12    C     0.80536   0.57377   0.13417   0.00000  Uiso   1.00
C13    C     0.89289   0.58143   0.02032   0.00000  Uiso   1.00
C14    C     0.88038   0.62458   0.30317   0.00000  Uiso   1.00
C15    C     0.84890   0.52450   0.34251   0.00000  Uiso   1.00
C16    C     0.90871   0.46477   0.36503   0.00000  Uiso   1.00
C17    C     0.86603   0.37594   0.40014   0.00000  Uiso   1.00
C18    C     0.80418   0.70524   0.34344   0.00000  Uiso   1.00
C19    C     0.82639   0.79749   0.36672   0.00000  Uiso   1.00
C20    C     0.74605   0.86081   0.40261   0.00000  Uiso   1.00
C21    C     0.86324   0.60868   0.23885   0.00000  Uiso   1.00
C22    C     0.93510   0.61977   0.17420   0.00000  Uiso   1.00
C23    C     0.90448   0.60183   0.12203   0.00000  Uiso   1.00
H24    H     0.62119   0.55121   0.33491   0.00000  Uiso   1.00
H25    H     0.63060   0.38607   0.39908   0.00000  Uiso   1.00
H26    H     0.54829   0.71874   0.40077   0.00000  Uiso   1.00
H27    H     0.65699   0.54105   0.20828   0.00000  Uiso   1.00
H28    H     0.68466   0.21536   0.46491   0.00000  Uiso   1.00
H29    H     0.51110   0.91682   0.46844   0.00000  Uiso   1.00
H30    H     0.74030   0.54213   0.06254   0.00000  Uiso   1.00
H31    H     0.95741   0.64639   0.29373   0.00000  Uiso   1.00
H32    H     0.98528   0.48647   0.35565   0.00000  Uiso   1.00
H33    H     0.90296   0.81914   0.35734   0.00000  Uiso   1.00
H34    H     0.01165   0.64145   0.16485   0.00000  Uiso   1.00
H35    H     0.97252   0.29685   0.42966   0.00000  Uiso   1.00
H36    H     0.79897   0.99831   0.43319   0.00000  Uiso   1.00
H37    H     0.02816   0.62361   0.02729   0.00000  Uiso   1.00
O38    O     0.84084   0.14921   0.48877   0.00000  Uiso   1.00
O39    O     0.61315   0.06950   0.49340   0.00000  Uiso   1.00
O40    O     0.91385   0.57790   0.96086   0.00000  Uiso   1.00
N41    N     0.74859   0.25648   0.44810   0.00000  Uiso   1.00
N42    N     0.58632   0.91229   0.45142   0.00000  Uiso   1.00
N43    N     0.80060   0.56201   0.07193   0.00000  Uiso   1.00
N44    N     0.90349   0.30032   0.42913   0.00000  Uiso   1.00
N45    N     0.74122   0.95614   0.43245   0.00000  Uiso   1.00
N46    N     0.95549   0.60586   0.05296   0.00000  Uiso   1.00
C47    C     0.30178   0.07301   0.17452   0.00000  Uiso   1.00
C48    C     0.25004   0.99648   0.14537   0.00000  Uiso   1.00
C49    C     0.29282   0.90772   0.11029   0.00000  Uiso   1.00
C50    C     0.23309   0.84788   0.08772   0.00000  Uiso   1.00
C51    C     0.16782   0.72482   0.04058   0.00000  Uiso   1.00
C52    C     0.29476   0.17723   0.14445   0.00000  Uiso   1.00
C53    C     0.37515   0.24043   0.10860   0.00000  Uiso   1.00
C54    C     0.35306   0.33275   0.08525   0.00000  Uiso   1.00
C55    C     0.35722   0.49033   0.03673   0.00000  Uiso   1.00
C56    C     0.23571   0.08067   0.24903   0.00000  Uiso   1.00
C57    C     0.26644   0.06272   0.30112   0.00000  Uiso   1.00
C58    C     0.19464   0.07377   0.36583   0.00000  Uiso   1.00
C59    C     0.10711   0.08143   0.47968   0.00000  Uiso   1.00
C60    C     0.11962   0.12458   0.19683   0.00000  Uiso   1.00
C61    C     0.15110   0.02450   0.15749   0.00000  Uiso   1.00
C62    C     0.09129   0.96477   0.13497   0.00000  Uiso   1.00
C63    C     0.13397   0.87594   0.09986   0.00000  Uiso   1.00
C64    C     0.19582   0.20524   0.15656   0.00000  Uiso   1.00
C65    C     0.17361   0.29749   0.13328   0.00000  Uiso   1.00
C66    C     0.25395   0.36081   0.09739   0.00000  Uiso   1.00
C67    C     0.13676   0.10868   0.26115   0.00000  Uiso   1.00
C68    C     0.06490   0.11977   0.32580   0.00000  Uiso   1.00
C69    C     0.09552   0.10183   0.37797   0.00000  Uiso   1.00
H70    H     0.37881   0.05121   0.16509   0.00000  Uiso   1.00
H71    H     0.36940   0.88607   0.10092   0.00000  Uiso   1.00
H72    H     0.45171   0.21874   0.09923   0.00000  Uiso   1.00
H73    H     0.34301   0.04105   0.29172   0.00000  Uiso   1.00
H74    H     0.31534   0.71536   0.03509   0.00000  Uiso   1.00
H75    H     0.48890   0.41682   0.03156   0.00000  Uiso   1.00
H76    H     0.25970   0.04213   0.43746   0.00000  Uiso   1.00
H77    H     0.04259   0.14639   0.20627   0.00000  Uiso   1.00
H78    H     0.01472   0.98647   0.14435   0.00000  Uiso   1.00
H79    H     0.09704   0.31914   0.14266   0.00000  Uiso   1.00
H80    H     0.98835   0.14145   0.33515   0.00000  Uiso   1.00
H81    H     0.02748   0.79685   0.07034   0.00000  Uiso   1.00
H82    H     0.20103   0.49831   0.06681   0.00000  Uiso   1.00
H83    H     0.97184   0.12361   0.47271   0.00000  Uiso   1.00
O84    O     0.15916   0.64921   0.01123   0.00000  Uiso   1.00
O85    O     0.38685   0.56950   0.00660   0.00000  Uiso   1.00
O86    O     0.08615   0.07790   0.53914   0.00000  Uiso   1.00
N87    N     0.25141   0.75648   0.05190   0.00000  Uiso   1.00
N88    N     0.41368   0.41229   0.04858   0.00000  Uiso   1.00
N89    N     0.19940   0.06201   0.42807   0.00000  Uiso   1.00
N90    N     0.09651   0.80032   0.07087   0.00000  Uiso   1.00
N91    N     0.25878   0.45614   0.06755   0.00000  Uiso   1.00
N92    N     0.04451   0.10586   0.44704   0.00000  Uiso   1.00
C93    C     0.30178   0.42699   0.67452   0.00000  Uiso   1.00
C94    C     0.25004   0.50352   0.64537   0.00000  Uiso   1.00
C95    C     0.29282   0.59228   0.61029   0.00000  Uiso   1.00
C96    C     0.23309   0.65212   0.58772   0.00000  Uiso   1.00
C97    C     0.16782   0.77518   0.54058   0.00000  Uiso   1.00
C98    C     0.29476   0.32277   0.64445   0.00000  Uiso   1.00
C99    C     0.37515   0.25957   0.60860   0.00000  Uiso   1.00
C100   C     0.35306   0.16725   0.58525   0.00000  Uiso   1.00
C101   C     0.35722   0.00967   0.53673   0.00000  Uiso   1.00
C102   C     0.23571   0.41933   0.74903   0.00000  Uiso   1.00
C103   C     0.26644   0.43728   0.80112   0.00000  Uiso   1.00
C104   C     0.19464   0.42623   0.86583   0.00000  Uiso   1.00
C105   C     0.10711   0.41857   0.97968   0.00000  Uiso   1.00
C106   C     0.11962   0.37542   0.69683   0.00000  Uiso   1.00
C107   C     0.15110   0.47550   0.65749   0.00000  Uiso   1.00
C108   C     0.09129   0.53523   0.63497   0.00000  Uiso   1.00
C109   C     0.13397   0.62406   0.59986   0.00000  Uiso   1.00
C110   C     0.19582   0.29476   0.65656   0.00000  Uiso   1.00
C111   C     0.17361   0.20251   0.63328   0.00000  Uiso   1.00
C112   C     0.25395   0.13919   0.59739   0.00000  Uiso   1.00
C113   C     0.13676   0.39132   0.76115   0.00000  Uiso   1.00
C114   C     0.06490   0.38023   0.82580   0.00000  Uiso   1.00
C115   C     0.09552   0.39817   0.87797   0.00000  Uiso   1.00
H116   H     0.37881   0.44879   0.66509   0.00000  Uiso   1.00
H117   H     0.36940   0.61393   0.60092   0.00000  Uiso   1.00
H118   H     0.45171   0.28126   0.59923   0.00000  Uiso   1.00
H119   H     0.34301   0.45895   0.79172   0.00000  Uiso   1.00
H120   H     0.31534   0.78464   0.53509   0.00000  Uiso   1.00
H121   H     0.48890   0.08318   0.53156   0.00000  Uiso   1.00
H122   H     0.25970   0.45787   0.93746   0.00000  Uiso   1.00
H123   H     0.04259   0.35361   0.70627   0.00000  Uiso   1.00
H124   H     0.01472   0.51353   0.64435   0.00000  Uiso   1.00
H125   H     0.09704   0.18086   0.64266   0.00000  Uiso   1.00
H126   H     0.98835   0.35855   0.83515   0.00000  Uiso   1.00
H127   H     0.02748   0.70315   0.57034   0.00000  Uiso   1.00
H128   H     0.20103   0.00169   0.56681   0.00000  Uiso   1.00
H129   H     0.97184   0.37639   0.97271   0.00000  Uiso   1.00
O130   O     0.15916   0.85079   0.51123   0.00000  Uiso   1.00
O131   O     0.38685   0.93050   0.50660   0.00000  Uiso   1.00
O132   O     0.08615   0.42210   0.03914   0.00000  Uiso   1.00
N133   N     0.25141   0.74352   0.55190   0.00000  Uiso   1.00
N134   N     0.41368   0.08771   0.54858   0.00000  Uiso   1.00
N135   N     0.19940   0.43799   0.92807   0.00000  Uiso   1.00
N136   N     0.09651   0.69968   0.57087   0.00000  Uiso   1.00
N137   N     0.25878   0.04386   0.56755   0.00000  Uiso   1.00
N138   N     0.04451   0.39414   0.94704   0.00000  Uiso   1.00
C139   C     0.69822   0.92699   0.82548   0.00000  Uiso   1.00
C140   C     0.74996   0.00352   0.85463   0.00000  Uiso   1.00
C141   C     0.70718   0.09228   0.88971   0.00000  Uiso   1.00
C142   C     0.76691   0.15212   0.91228   0.00000  Uiso   1.00
C143   C     0.83218   0.27518   0.95942   0.00000  Uiso   1.00
C144   C     0.70524   0.82277   0.85555   0.00000  Uiso   1.00
C145   C     0.62485   0.75957   0.89140   0.00000  Uiso   1.00
C146   C     0.64694   0.66725   0.91475   0.00000  Uiso   1.00
C147   C     0.64278   0.50967   0.96327   0.00000  Uiso   1.00
C148   C     0.76429   0.91933   0.75097   0.00000  Uiso   1.00
C149   C     0.73356   0.93728   0.69888   0.00000  Uiso   1.00
C150   C     0.80536   0.92623   0.63417   0.00000  Uiso   1.00
C151   C     0.89289   0.91857   0.52032   0.00000  Uiso   1.00
C152   C     0.88038   0.87542   0.80317   0.00000  Uiso   1.00
C153   C     0.84890   0.97550   0.84251   0.00000  Uiso   1.00
C154   C     0.90871   0.03523   0.86503   0.00000  Uiso   1.00
C155   C     0.86603   0.12406   0.90014   0.00000  Uiso   1.00
C156   C     0.80418   0.79476   0.84344   0.00000  Uiso   1.00
C157   C     0.82639   0.70251   0.86672   0.00000  Uiso   1.00
C158   C     0.74605   0.63919   0.90261   0.00000  Uiso   1.00
C159   C     0.86324   0.89132   0.73885   0.00000  Uiso   1.00
C160   C     0.93510   0.88023   0.67420   0.00000  Uiso   1.00
C161   C     0.90448   0.89817   0.62203   0.00000  Uiso   1.00
H162   H     0.62119   0.94879   0.83491   0.00000  Uiso   1.00
H163   H     0.63060   0.11393   0.89908   0.00000  Uiso   1.00
H164   H     0.54829   0.78126   0.90077   0.00000  Uiso   1.00
H165   H     0.65699   0.95895   0.70828   0.00000  Uiso   1.00
H166   H     0.68466   0.28464   0.96491   0.00000  Uiso   1.00
H167   H     0.51110   0.58318   0.96844   0.00000  Uiso   1.00
H168   H     0.74030   0.95787   0.56254   0.00000  Uiso   1.00
H169   H     0.95741   0.85361   0.79373   0.00000  Uiso   1.00
H170   H     0.98528   0.01353   0.85565   0.00000  Uiso   1.00
H171   H     0.90296   0.68086   0.85734   0.00000  Uiso   1.00
H172   H     0.01165   0.85855   0.66485   0.00000  Uiso   1.00
H173   H     0.97252   0.20315   0.92966   0.00000  Uiso   1.00
H174   H     0.79897   0.50169   0.93319   0.00000  Uiso   1.00
H175   H     0.02816   0.87639   0.52729   0.00000  Uiso   1.00
O176   O     0.84084   0.35079   0.98877   0.00000  Uiso   1.00
O177   O     0.61315   0.43050   0.99340   0.00000  Uiso   1.00
O178   O     0.91385   0.92210   0.46086   0.00000  Uiso   1.00
N179   N     0.74859   0.24352   0.94810   0.00000  Uiso   1.00
N180   N     0.58632   0.58771   0.95142   0.00000  Uiso   1.00
N181   N     0.80060   0.93799   0.57193   0.00000  Uiso   1.00
N182   N     0.90349   0.19968   0.92913   0.00000  Uiso   1.00
N183   N     0.74122   0.54386   0.93245   0.00000  Uiso   1.00
N184   N     0.95549   0.89414   0.55296   0.00000  Uiso   1.00
