data_job_02626
_audit_creation_date              2018-12-19
_audit_creation_method            'Materials Studio'
_symmetry_space_group_name_H-M    'P1'
_symmetry_Int_Tables_number       1
_symmetry_cell_setting            triclinic
loop_
_symmetry_equiv_pos_as_xyz
  x,y,z
_cell_length_a                    37.0550
_cell_length_b                    8.1807
_cell_length_c                    35.5397
_cell_angle_alpha                 90.0000
_cell_angle_beta                  164.2215
_cell_angle_gamma                 90.0000
loop_
_atom_site_label
_atom_site_type_symbol
_atom_site_fract_x
_atom_site_fract_y
_atom_site_fract_z
_atom_site_U_iso_or_equiv
_atom_site_adp_type
_atom_site_occupancy
C1     C     0.09887   0.36960   0.00132   0.00000  Uiso   1.00
C2     C     0.18212   0.49573   0.10585   0.00000  Uiso   1.00
C3     C     0.21584   0.48949   0.17751   0.00000  Uiso   1.00
C4     C     0.29271   0.61673   0.26854   0.00000  Uiso   1.00
C5     C     0.41560   0.79302   0.42798   0.00000  Uiso   1.00
C6     C     0.98316   0.46356   0.86798   0.00000  Uiso   1.00
C7     C     0.84959   0.43025   0.73964   0.00000  Uiso   1.00
C8     C     0.75898   0.53040   0.63043   0.00000  Uiso   1.00
C9     C     0.57298   0.65667   0.42054   0.00000  Uiso   1.00
C10    C     0.18378   0.31200   0.05356   0.00000  Uiso   1.00
C11    C     0.21887   0.15126   0.08123   0.00000  Uiso   1.00
C12    C     0.29714   0.12381   0.12824   0.00000  Uiso   1.00
C13    C     0.42264   0.01477   0.20650   0.00000  Uiso   1.00
C14    C     0.17543   0.60668   0.03555   0.00000  Uiso   1.00
C15    C     0.22370   0.62450   0.12444   0.00000  Uiso   1.00
C16    C     0.30055   0.75178   0.21539   0.00000  Uiso   1.00
C17    C     0.33438   0.74573   0.28717   0.00000  Uiso   1.00
C18    C     0.02474   0.59232   0.88657   0.00000  Uiso   1.00
C19    C     0.93430   0.69255   0.77752   0.00000  Uiso   1.00
C20    C     0.80064   0.65941   0.64905   0.00000  Uiso   1.00
C21    C     0.22537   0.44077   0.07216   0.00000  Uiso   1.00
C22    C     0.30359   0.41356   0.11912   0.00000  Uiso   1.00
C23    C     0.33880   0.25281   0.14686   0.00000  Uiso   1.00
H24    H     0.06648   0.26935   0.98683   0.00000  Uiso   1.00
H25    H     0.18362   0.38982   0.16308   0.00000  Uiso   1.00
H26    H     0.81744   0.33058   0.72528   0.00000  Uiso   1.00
H27    H     0.18667   0.05164   0.06683   0.00000  Uiso   1.00
H28    H     0.33180   0.58019   0.36666   0.00000  Uiso   1.00
H29    H     0.55968   0.45525   0.44352   0.00000  Uiso   1.00
H30    H     0.33827   0.86705   0.16374   0.00000  Uiso   1.00
H31    H     0.20781   0.70694   0.05002   0.00000  Uiso   1.00
H32    H     0.33272   0.85142   0.22975   0.00000  Uiso   1.00
H33    H     0.96652   0.79218   0.79194   0.00000  Uiso   1.00
H34    H     0.33575   0.51324   0.13350   0.00000  Uiso   1.00
H35    H     0.45280   0.95485   0.42076   0.00000  Uiso   1.00
H36    H     0.68068   0.82990   0.49762   0.00000  Uiso   1.00
H37    H     0.45927   0.24171   0.21784   0.00000  Uiso   1.00
O38    O     0.47187   0.85470   0.51077   0.00000  Uiso   1.00
O39    O     0.45889   0.69076   0.29964   0.00000  Uiso   1.00
O40    O     0.48038   0.91906   0.24456   0.00000  Uiso   1.00
N41    N     0.34316   0.64853   0.35475   0.00000  Uiso   1.00
N42    N     0.62127   0.53173   0.49167   0.00000  Uiso   1.00
N43    N     0.34916   0.98180   0.16498   0.00000  Uiso   1.00
N44    N     0.40827   0.85012   0.38386   0.00000  Uiso   1.00
N45    N     0.68638   0.73333   0.52078   0.00000  Uiso   1.00
N46    N     0.41427   0.18340   0.19409   0.00000  Uiso   1.00
C47    C     0.90113   0.86960   0.49868   0.00000  Uiso   1.00
C48    C     0.81788   0.99573   0.39415   0.00000  Uiso   1.00
C49    C     0.78416   0.98949   0.32249   0.00000  Uiso   1.00
C50    C     0.70729   0.11673   0.23146   0.00000  Uiso   1.00
C51    C     0.58440   0.29302   0.07202   0.00000  Uiso   1.00
C52    C     0.01684   0.96356   0.63202   0.00000  Uiso   1.00
C53    C     0.15041   0.93025   0.76036   0.00000  Uiso   1.00
C54    C     0.24102   0.03040   0.86957   0.00000  Uiso   1.00
C55    C     0.42702   0.15667   0.07946   0.00000  Uiso   1.00
C56    C     0.81622   0.81200   0.44644   0.00000  Uiso   1.00
C57    C     0.78113   0.65126   0.41877   0.00000  Uiso   1.00
C58    C     0.70286   0.62381   0.37176   0.00000  Uiso   1.00
C59    C     0.57736   0.51477   0.29350   0.00000  Uiso   1.00
C60    C     0.82457   0.10668   0.46445   0.00000  Uiso   1.00
C61    C     0.77630   0.12450   0.37556   0.00000  Uiso   1.00
C62    C     0.69945   0.25178   0.28461   0.00000  Uiso   1.00
C63    C     0.66562   0.24573   0.21283   0.00000  Uiso   1.00
C64    C     0.97526   0.09232   0.61343   0.00000  Uiso   1.00
C65    C     0.06570   0.19255   0.72248   0.00000  Uiso   1.00
C66    C     0.19936   0.15941   0.85095   0.00000  Uiso   1.00
C67    C     0.77463   0.94077   0.42784   0.00000  Uiso   1.00
C68    C     0.69641   0.91356   0.38088   0.00000  Uiso   1.00
C69    C     0.66120   0.75281   0.35314   0.00000  Uiso   1.00
H70    H     0.93352   0.76935   0.51317   0.00000  Uiso   1.00
H71    H     0.81638   0.88982   0.33692   0.00000  Uiso   1.00
H72    H     0.18256   0.83058   0.77472   0.00000  Uiso   1.00
H73    H     0.81333   0.55164   0.43317   0.00000  Uiso   1.00
H74    H     0.66820   0.08019   0.13334   0.00000  Uiso   1.00
H75    H     0.44032   0.95525   0.05648   0.00000  Uiso   1.00
H76    H     0.66173   0.36705   0.33626   0.00000  Uiso   1.00
H77    H     0.79219   0.20694   0.44998   0.00000  Uiso   1.00
H78    H     0.66728   0.35142   0.27025   0.00000  Uiso   1.00
H79    H     0.03348   0.29218   0.70806   0.00000  Uiso   1.00
H80    H     0.66425   0.01324   0.36650   0.00000  Uiso   1.00
H81    H     0.54720   0.45485   0.07924   0.00000  Uiso   1.00
H82    H     0.31932   0.32990   0.00238   0.00000  Uiso   1.00
H83    H     0.54073   0.74171   0.28216   0.00000  Uiso   1.00
O84    O     0.52813   0.35470   0.98923   0.00000  Uiso   1.00
O85    O     0.54111   0.19076   0.20036   0.00000  Uiso   1.00
O86    O     0.51962   0.41906   0.25544   0.00000  Uiso   1.00
N87    N     0.65684   0.14853   0.14525   0.00000  Uiso   1.00
N88    N     0.37873   0.03173   0.00833   0.00000  Uiso   1.00
N89    N     0.65084   0.48180   0.33502   0.00000  Uiso   1.00
N90    N     0.59173   0.35012   0.11614   0.00000  Uiso   1.00
N91    N     0.31362   0.23333   0.97922   0.00000  Uiso   1.00
N92    N     0.58573   0.68340   0.30591   0.00000  Uiso   1.00
C93    C     0.90113   0.63040   0.99868   0.00000  Uiso   1.00
C94    C     0.81788   0.50427   0.89415   0.00000  Uiso   1.00
C95    C     0.78416   0.51051   0.82249   0.00000  Uiso   1.00
C96    C     0.70729   0.38327   0.73146   0.00000  Uiso   1.00
C97    C     0.58440   0.20698   0.57202   0.00000  Uiso   1.00
C98    C     0.01684   0.53644   0.13202   0.00000  Uiso   1.00
C99    C     0.15041   0.56975   0.26036   0.00000  Uiso   1.00
C100   C     0.24102   0.46960   0.36957   0.00000  Uiso   1.00
C101   C     0.42702   0.34333   0.57946   0.00000  Uiso   1.00
C102   C     0.81622   0.68800   0.94644   0.00000  Uiso   1.00
C103   C     0.78113   0.84874   0.91877   0.00000  Uiso   1.00
C104   C     0.70286   0.87619   0.87176   0.00000  Uiso   1.00
C105   C     0.57736   0.98523   0.79350   0.00000  Uiso   1.00
C106   C     0.82457   0.39332   0.96445   0.00000  Uiso   1.00
C107   C     0.77630   0.37550   0.87556   0.00000  Uiso   1.00
C108   C     0.69945   0.24822   0.78461   0.00000  Uiso   1.00
C109   C     0.66562   0.25427   0.71283   0.00000  Uiso   1.00
C110   C     0.97526   0.40768   0.11343   0.00000  Uiso   1.00
C111   C     0.06570   0.30745   0.22248   0.00000  Uiso   1.00
C112   C     0.19936   0.34059   0.35095   0.00000  Uiso   1.00
C113   C     0.77463   0.55923   0.92784   0.00000  Uiso   1.00
C114   C     0.69641   0.58644   0.88088   0.00000  Uiso   1.00
C115   C     0.66120   0.74719   0.85314   0.00000  Uiso   1.00
H116   H     0.93352   0.73065   0.01317   0.00000  Uiso   1.00
H117   H     0.81638   0.61018   0.83692   0.00000  Uiso   1.00
H118   H     0.18256   0.66942   0.27472   0.00000  Uiso   1.00
H119   H     0.81333   0.94836   0.93317   0.00000  Uiso   1.00
H120   H     0.66820   0.41981   0.63334   0.00000  Uiso   1.00
H121   H     0.44032   0.54475   0.55648   0.00000  Uiso   1.00
H122   H     0.66173   0.13295   0.83626   0.00000  Uiso   1.00
H123   H     0.79219   0.29306   0.94998   0.00000  Uiso   1.00
H124   H     0.66728   0.14858   0.77025   0.00000  Uiso   1.00
H125   H     0.03348   0.20782   0.20806   0.00000  Uiso   1.00
H126   H     0.66425   0.48676   0.86650   0.00000  Uiso   1.00
H127   H     0.54720   0.04515   0.57924   0.00000  Uiso   1.00
H128   H     0.31932   0.17010   0.50238   0.00000  Uiso   1.00
H129   H     0.54073   0.75829   0.78216   0.00000  Uiso   1.00
O130   O     0.52813   0.14530   0.48923   0.00000  Uiso   1.00
O131   O     0.54111   0.30924   0.70036   0.00000  Uiso   1.00
O132   O     0.51962   0.08094   0.75544   0.00000  Uiso   1.00
N133   N     0.65684   0.35147   0.64525   0.00000  Uiso   1.00
N134   N     0.37873   0.46827   0.50833   0.00000  Uiso   1.00
N135   N     0.65084   0.01820   0.83502   0.00000  Uiso   1.00
N136   N     0.59173   0.14988   0.61614   0.00000  Uiso   1.00
N137   N     0.31362   0.26667   0.47922   0.00000  Uiso   1.00
N138   N     0.58573   0.81660   0.80591   0.00000  Uiso   1.00
C139   C     0.09887   0.13040   0.50132   0.00000  Uiso   1.00
C140   C     0.18212   0.00427   0.60585   0.00000  Uiso   1.00
C141   C     0.21584   0.01051   0.67751   0.00000  Uiso   1.00
C142   C     0.29271   0.88327   0.76854   0.00000  Uiso   1.00
C143   C     0.41560   0.70698   0.92798   0.00000  Uiso   1.00
C144   C     0.98316   0.03644   0.36798   0.00000  Uiso   1.00
C145   C     0.84959   0.06975   0.23964   0.00000  Uiso   1.00
C146   C     0.75898   0.96960   0.13043   0.00000  Uiso   1.00
C147   C     0.57298   0.84333   0.92054   0.00000  Uiso   1.00
C148   C     0.18378   0.18800   0.55356   0.00000  Uiso   1.00
C149   C     0.21887   0.34874   0.58123   0.00000  Uiso   1.00
C150   C     0.29714   0.37619   0.62824   0.00000  Uiso   1.00
C151   C     0.42264   0.48523   0.70650   0.00000  Uiso   1.00
C152   C     0.17543   0.89332   0.53555   0.00000  Uiso   1.00
C153   C     0.22370   0.87550   0.62444   0.00000  Uiso   1.00
C154   C     0.30055   0.74822   0.71539   0.00000  Uiso   1.00
C155   C     0.33438   0.75427   0.78717   0.00000  Uiso   1.00
C156   C     0.02474   0.90768   0.38657   0.00000  Uiso   1.00
C157   C     0.93430   0.80745   0.27752   0.00000  Uiso   1.00
C158   C     0.80064   0.84059   0.14905   0.00000  Uiso   1.00
C159   C     0.22537   0.05923   0.57216   0.00000  Uiso   1.00
C160   C     0.30359   0.08644   0.61912   0.00000  Uiso   1.00
C161   C     0.33880   0.24719   0.64686   0.00000  Uiso   1.00
H162   H     0.06648   0.23065   0.48683   0.00000  Uiso   1.00
H163   H     0.18362   0.11018   0.66308   0.00000  Uiso   1.00
H164   H     0.81744   0.16942   0.22528   0.00000  Uiso   1.00
H165   H     0.18667   0.44836   0.56683   0.00000  Uiso   1.00
H166   H     0.33180   0.91981   0.86666   0.00000  Uiso   1.00
H167   H     0.55968   0.04475   0.94352   0.00000  Uiso   1.00
H168   H     0.33827   0.63295   0.66374   0.00000  Uiso   1.00
H169   H     0.20781   0.79306   0.55002   0.00000  Uiso   1.00
H170   H     0.33272   0.64858   0.72975   0.00000  Uiso   1.00
H171   H     0.96652   0.70782   0.29194   0.00000  Uiso   1.00
H172   H     0.33575   0.98676   0.63350   0.00000  Uiso   1.00
H173   H     0.45280   0.54515   0.92076   0.00000  Uiso   1.00
H174   H     0.68068   0.67010   0.99762   0.00000  Uiso   1.00
H175   H     0.45927   0.25829   0.71784   0.00000  Uiso   1.00
O176   O     0.47187   0.64530   0.01077   0.00000  Uiso   1.00
O177   O     0.45889   0.80924   0.79964   0.00000  Uiso   1.00
O178   O     0.48038   0.58094   0.74456   0.00000  Uiso   1.00
N179   N     0.34316   0.85147   0.85475   0.00000  Uiso   1.00
N180   N     0.62127   0.96827   0.99167   0.00000  Uiso   1.00
N181   N     0.34916   0.51820   0.66498   0.00000  Uiso   1.00
N182   N     0.40827   0.64988   0.88386   0.00000  Uiso   1.00
N183   N     0.68638   0.76667   0.02078   0.00000  Uiso   1.00
N184   N     0.41427   0.31660   0.69409   0.00000  Uiso   1.00
