data_job_02233
_audit_creation_date              2018-12-19
_audit_creation_method            'Materials Studio'
_symmetry_space_group_name_H-M    'P1'
_symmetry_Int_Tables_number       1
_symmetry_cell_setting            triclinic
loop_
_symmetry_equiv_pos_as_xyz
  x,y,z
_cell_length_a                    19.9913
_cell_length_b                    19.9913
_cell_length_c                    10.6549
_cell_angle_alpha                 90.0000
_cell_angle_beta                  90.0000
_cell_angle_gamma                 90.0000
loop_
_atom_site_label
_atom_site_type_symbol
_atom_site_fract_x
_atom_site_fract_y
_atom_site_fract_z
_atom_site_U_iso_or_equiv
_atom_site_adp_type
_atom_site_occupancy
C1     C     0.32013   0.61301   0.55467   0.00000  Uiso   1.00
C2     C     0.32973   0.61364   0.69665   0.00000  Uiso   1.00
C3     C     0.36119   0.56426   0.76661   0.00000  Uiso   1.00
C4     C     0.36487   0.57414   0.89540   0.00000  Uiso   1.00
C5     C     0.38383   0.56640   0.10725   0.00000  Uiso   1.00
C6     C     0.24510   0.62011   0.53256   0.00000  Uiso   1.00
C7     C     0.20542   0.57616   0.46455   0.00000  Uiso   1.00
C8     C     0.13786   0.59149   0.45520   0.00000  Uiso   1.00
C9     C     0.02544   0.59381   0.41222   0.00000  Uiso   1.00
C10    C     0.35169   0.67749   0.50629   0.00000  Uiso   1.00
C11    C     0.40162   0.68180   0.41615   0.00000  Uiso   1.00
C12    C     0.42380   0.74544   0.38466   0.00000  Uiso   1.00
C13    C     0.47688   0.83685   0.30089   0.00000  Uiso   1.00
C14    C     0.27071   0.71837   0.65899   0.00000  Uiso   1.00
C15    C     0.30288   0.67087   0.75330   0.00000  Uiso   1.00
C16    C     0.30652   0.68083   0.88203   0.00000  Uiso   1.00
C17    C     0.33799   0.63147   0.95217   0.00000  Uiso   1.00
C18    C     0.21826   0.67733   0.58922   0.00000  Uiso   1.00
C19    C     0.15075   0.69273   0.57996   0.00000  Uiso   1.00
C20    C     0.11097   0.64882   0.51196   0.00000  Uiso   1.00
C21    C     0.32485   0.73472   0.56295   0.00000  Uiso   1.00
C22    C     0.34695   0.79836   0.53158   0.00000  Uiso   1.00
C23    C     0.39691   0.80277   0.44143   0.00000  Uiso   1.00
H24    H     0.34102   0.56846   0.51055   0.00000  Uiso   1.00
H25    H     0.38195   0.51998   0.72272   0.00000  Uiso   1.00
H26    H     0.22620   0.53189   0.42070   0.00000  Uiso   1.00
H27    H     0.42238   0.63750   0.37233   0.00000  Uiso   1.00
H28    H     0.41547   0.49146   0.98295   0.00000  Uiso   1.00
H29    H     0.08707   0.51657   0.34608   0.00000  Uiso   1.00
H30    H     0.50075   0.73928   0.24407   0.00000  Uiso   1.00
H31    H     0.24982   0.76293   0.70310   0.00000  Uiso   1.00
H32    H     0.28574   0.72512   0.92585   0.00000  Uiso   1.00
H33    H     0.12999   0.73702   0.62382   0.00000  Uiso   1.00
H34    H     0.32617   0.84264   0.57545   0.00000  Uiso   1.00
H35    H     0.33738   0.65795   0.14782   0.00000  Uiso   1.00
H36    H     0.00898   0.68307   0.51094   0.00000  Uiso   1.00
H37    H     0.42266   0.90578   0.40893   0.00000  Uiso   1.00
O38    O     0.40169   0.54631   0.20844   0.00000  Uiso   1.00
O39    O     0.97085   0.57927   0.37287   0.00000  Uiso   1.00
O40    O     0.51358   0.87146   0.23904   0.00000  Uiso   1.00
N41    N     0.39217   0.53584   0.99118   0.00000  Uiso   1.00
N42    N     0.08514   0.55931   0.39576   0.00000  Uiso   1.00
N43    N     0.47188   0.76753   0.30036   0.00000  Uiso   1.00
N44    N     0.35016   0.62543   0.07989   0.00000  Uiso   1.00
N45    N     0.04312   0.64890   0.48447   0.00000  Uiso   1.00
N46    N     0.42986   0.85712   0.38907   0.00000  Uiso   1.00
C47    C     0.82013   0.11301   0.05467   0.00000  Uiso   1.00
C48    C     0.82973   0.11364   0.19665   0.00000  Uiso   1.00
C49    C     0.86119   0.06426   0.26661   0.00000  Uiso   1.00
C50    C     0.86487   0.07414   0.39540   0.00000  Uiso   1.00
C51    C     0.88383   0.06640   0.60725   0.00000  Uiso   1.00
C52    C     0.74510   0.12011   0.03256   0.00000  Uiso   1.00
C53    C     0.70542   0.07616   0.96455   0.00000  Uiso   1.00
C54    C     0.63786   0.09149   0.95520   0.00000  Uiso   1.00
C55    C     0.52544   0.09381   0.91222   0.00000  Uiso   1.00
C56    C     0.85169   0.17749   0.00629   0.00000  Uiso   1.00
C57    C     0.90162   0.18180   0.91615   0.00000  Uiso   1.00
C58    C     0.92380   0.24544   0.88466   0.00000  Uiso   1.00
C59    C     0.97688   0.33685   0.80089   0.00000  Uiso   1.00
C60    C     0.77071   0.21837   0.15899   0.00000  Uiso   1.00
C61    C     0.80288   0.17087   0.25330   0.00000  Uiso   1.00
C62    C     0.80652   0.18083   0.38203   0.00000  Uiso   1.00
C63    C     0.83799   0.13147   0.45217   0.00000  Uiso   1.00
C64    C     0.71826   0.17733   0.08922   0.00000  Uiso   1.00
C65    C     0.65075   0.19273   0.07996   0.00000  Uiso   1.00
C66    C     0.61097   0.14882   0.01196   0.00000  Uiso   1.00
C67    C     0.82485   0.23472   0.06295   0.00000  Uiso   1.00
C68    C     0.84695   0.29836   0.03158   0.00000  Uiso   1.00
C69    C     0.89691   0.30277   0.94143   0.00000  Uiso   1.00
H70    H     0.84102   0.06846   0.01055   0.00000  Uiso   1.00
H71    H     0.88195   0.01998   0.22272   0.00000  Uiso   1.00
H72    H     0.72620   0.03189   0.92070   0.00000  Uiso   1.00
H73    H     0.92238   0.13750   0.87233   0.00000  Uiso   1.00
H74    H     0.91547   0.99146   0.48295   0.00000  Uiso   1.00
H75    H     0.58707   0.01657   0.84608   0.00000  Uiso   1.00
H76    H     0.00075   0.23928   0.74407   0.00000  Uiso   1.00
H77    H     0.74982   0.26293   0.20310   0.00000  Uiso   1.00
H78    H     0.78574   0.22512   0.42585   0.00000  Uiso   1.00
H79    H     0.62999   0.23702   0.12382   0.00000  Uiso   1.00
H80    H     0.82617   0.34264   0.07545   0.00000  Uiso   1.00
H81    H     0.83738   0.15795   0.64782   0.00000  Uiso   1.00
H82    H     0.50898   0.18307   0.01094   0.00000  Uiso   1.00
H83    H     0.92266   0.40578   0.90893   0.00000  Uiso   1.00
O84    O     0.90169   0.04631   0.70844   0.00000  Uiso   1.00
O85    O     0.47085   0.07927   0.87287   0.00000  Uiso   1.00
O86    O     0.01358   0.37146   0.73904   0.00000  Uiso   1.00
N87    N     0.89217   0.03584   0.49118   0.00000  Uiso   1.00
N88    N     0.58514   0.05931   0.89576   0.00000  Uiso   1.00
N89    N     0.97188   0.26753   0.80036   0.00000  Uiso   1.00
N90    N     0.85016   0.12543   0.57989   0.00000  Uiso   1.00
N91    N     0.54312   0.14890   0.98447   0.00000  Uiso   1.00
N92    N     0.92986   0.35712   0.88907   0.00000  Uiso   1.00
C93    C     0.67987   0.38699   0.55467   0.00000  Uiso   1.00
C94    C     0.67027   0.38636   0.69665   0.00000  Uiso   1.00
C95    C     0.63881   0.43574   0.76661   0.00000  Uiso   1.00
C96    C     0.63513   0.42586   0.89540   0.00000  Uiso   1.00
C97    C     0.61617   0.43360   0.10725   0.00000  Uiso   1.00
C98    C     0.75490   0.37989   0.53256   0.00000  Uiso   1.00
C99    C     0.79458   0.42384   0.46455   0.00000  Uiso   1.00
C100   C     0.86214   0.40851   0.45520   0.00000  Uiso   1.00
C101   C     0.97456   0.40619   0.41222   0.00000  Uiso   1.00
C102   C     0.64831   0.32251   0.50629   0.00000  Uiso   1.00
C103   C     0.59838   0.31820   0.41615   0.00000  Uiso   1.00
C104   C     0.57620   0.25456   0.38466   0.00000  Uiso   1.00
C105   C     0.52312   0.16315   0.30089   0.00000  Uiso   1.00
C106   C     0.72929   0.28163   0.65899   0.00000  Uiso   1.00
C107   C     0.69712   0.32913   0.75330   0.00000  Uiso   1.00
C108   C     0.69348   0.31917   0.88203   0.00000  Uiso   1.00
C109   C     0.66201   0.36853   0.95217   0.00000  Uiso   1.00
C110   C     0.78174   0.32267   0.58922   0.00000  Uiso   1.00
C111   C     0.84925   0.30727   0.57996   0.00000  Uiso   1.00
C112   C     0.88903   0.35118   0.51196   0.00000  Uiso   1.00
C113   C     0.67515   0.26528   0.56295   0.00000  Uiso   1.00
C114   C     0.65305   0.20164   0.53158   0.00000  Uiso   1.00
C115   C     0.60309   0.19723   0.44143   0.00000  Uiso   1.00
H116   H     0.65898   0.43154   0.51055   0.00000  Uiso   1.00
H117   H     0.61805   0.48002   0.72272   0.00000  Uiso   1.00
H118   H     0.77380   0.46811   0.42070   0.00000  Uiso   1.00
H119   H     0.57762   0.36250   0.37233   0.00000  Uiso   1.00
H120   H     0.58453   0.50854   0.98295   0.00000  Uiso   1.00
H121   H     0.91293   0.48343   0.34608   0.00000  Uiso   1.00
H122   H     0.49925   0.26072   0.24407   0.00000  Uiso   1.00
H123   H     0.75018   0.23707   0.70310   0.00000  Uiso   1.00
H124   H     0.71426   0.27488   0.92585   0.00000  Uiso   1.00
H125   H     0.87001   0.26298   0.62382   0.00000  Uiso   1.00
H126   H     0.67383   0.15736   0.57545   0.00000  Uiso   1.00
H127   H     0.66262   0.34205   0.14782   0.00000  Uiso   1.00
H128   H     0.99102   0.31693   0.51094   0.00000  Uiso   1.00
H129   H     0.57734   0.09422   0.40893   0.00000  Uiso   1.00
O130   O     0.59831   0.45369   0.20844   0.00000  Uiso   1.00
O131   O     0.02915   0.42073   0.37287   0.00000  Uiso   1.00
O132   O     0.48642   0.12854   0.23904   0.00000  Uiso   1.00
N133   N     0.60783   0.46416   0.99118   0.00000  Uiso   1.00
N134   N     0.91486   0.44069   0.39576   0.00000  Uiso   1.00
N135   N     0.52812   0.23247   0.30036   0.00000  Uiso   1.00
N136   N     0.64984   0.37457   0.07989   0.00000  Uiso   1.00
N137   N     0.95688   0.35110   0.48447   0.00000  Uiso   1.00
N138   N     0.57014   0.14288   0.38907   0.00000  Uiso   1.00
C139   C     0.17987   0.88699   0.05467   0.00000  Uiso   1.00
C140   C     0.17027   0.88636   0.19665   0.00000  Uiso   1.00
C141   C     0.13881   0.93574   0.26661   0.00000  Uiso   1.00
C142   C     0.13513   0.92586   0.39540   0.00000  Uiso   1.00
C143   C     0.11617   0.93360   0.60725   0.00000  Uiso   1.00
C144   C     0.25490   0.87989   0.03256   0.00000  Uiso   1.00
C145   C     0.29458   0.92384   0.96455   0.00000  Uiso   1.00
C146   C     0.36214   0.90851   0.95520   0.00000  Uiso   1.00
C147   C     0.47456   0.90619   0.91222   0.00000  Uiso   1.00
C148   C     0.14831   0.82251   0.00629   0.00000  Uiso   1.00
C149   C     0.09838   0.81820   0.91615   0.00000  Uiso   1.00
C150   C     0.07620   0.75456   0.88466   0.00000  Uiso   1.00
C151   C     0.02312   0.66315   0.80089   0.00000  Uiso   1.00
C152   C     0.22929   0.78163   0.15899   0.00000  Uiso   1.00
C153   C     0.19712   0.82913   0.25330   0.00000  Uiso   1.00
C154   C     0.19348   0.81917   0.38203   0.00000  Uiso   1.00
C155   C     0.16201   0.86853   0.45217   0.00000  Uiso   1.00
C156   C     0.28174   0.82267   0.08922   0.00000  Uiso   1.00
C157   C     0.34925   0.80727   0.07996   0.00000  Uiso   1.00
C158   C     0.38903   0.85118   0.01196   0.00000  Uiso   1.00
C159   C     0.17515   0.76528   0.06295   0.00000  Uiso   1.00
C160   C     0.15305   0.70164   0.03158   0.00000  Uiso   1.00
C161   C     0.10309   0.69723   0.94143   0.00000  Uiso   1.00
H162   H     0.15898   0.93154   0.01055   0.00000  Uiso   1.00
H163   H     0.11805   0.98002   0.22272   0.00000  Uiso   1.00
H164   H     0.27380   0.96811   0.92070   0.00000  Uiso   1.00
H165   H     0.07762   0.86250   0.87233   0.00000  Uiso   1.00
H166   H     0.08453   0.00854   0.48295   0.00000  Uiso   1.00
H167   H     0.41293   0.98343   0.84608   0.00000  Uiso   1.00
H168   H     0.99925   0.76072   0.74407   0.00000  Uiso   1.00
H169   H     0.25018   0.73707   0.20310   0.00000  Uiso   1.00
H170   H     0.21426   0.77488   0.42585   0.00000  Uiso   1.00
H171   H     0.37001   0.76298   0.12382   0.00000  Uiso   1.00
H172   H     0.17383   0.65736   0.07545   0.00000  Uiso   1.00
H173   H     0.16262   0.84205   0.64782   0.00000  Uiso   1.00
H174   H     0.49102   0.81693   0.01094   0.00000  Uiso   1.00
H175   H     0.07734   0.59422   0.90893   0.00000  Uiso   1.00
O176   O     0.09831   0.95369   0.70844   0.00000  Uiso   1.00
O177   O     0.52915   0.92073   0.87287   0.00000  Uiso   1.00
O178   O     0.98642   0.62854   0.73904   0.00000  Uiso   1.00
N179   N     0.10783   0.96416   0.49118   0.00000  Uiso   1.00
N180   N     0.41486   0.94069   0.89576   0.00000  Uiso   1.00
N181   N     0.02812   0.73247   0.80036   0.00000  Uiso   1.00
N182   N     0.14984   0.87457   0.57989   0.00000  Uiso   1.00
N183   N     0.45688   0.85110   0.98447   0.00000  Uiso   1.00
N184   N     0.07014   0.64288   0.88907   0.00000  Uiso   1.00
C185   C     0.61301   0.67987   0.44533   0.00000  Uiso   1.00
C186   C     0.61364   0.67027   0.30335   0.00000  Uiso   1.00
C187   C     0.56426   0.63881   0.23339   0.00000  Uiso   1.00
C188   C     0.57414   0.63513   0.10460   0.00000  Uiso   1.00
C189   C     0.56640   0.61617   0.89275   0.00000  Uiso   1.00
C190   C     0.62011   0.75490   0.46744   0.00000  Uiso   1.00
C191   C     0.57616   0.79458   0.53545   0.00000  Uiso   1.00
C192   C     0.59149   0.86214   0.54480   0.00000  Uiso   1.00
C193   C     0.59381   0.97456   0.58778   0.00000  Uiso   1.00
C194   C     0.67749   0.64831   0.49371   0.00000  Uiso   1.00
C195   C     0.68180   0.59838   0.58385   0.00000  Uiso   1.00
C196   C     0.74544   0.57620   0.61534   0.00000  Uiso   1.00
C197   C     0.83685   0.52312   0.69911   0.00000  Uiso   1.00
C198   C     0.71837   0.72929   0.34101   0.00000  Uiso   1.00
C199   C     0.67087   0.69712   0.24670   0.00000  Uiso   1.00
C200   C     0.68083   0.69348   0.11797   0.00000  Uiso   1.00
C201   C     0.63147   0.66201   0.04783   0.00000  Uiso   1.00
C202   C     0.67733   0.78174   0.41078   0.00000  Uiso   1.00
C203   C     0.69273   0.84925   0.42004   0.00000  Uiso   1.00
C204   C     0.64882   0.88903   0.48804   0.00000  Uiso   1.00
C205   C     0.73472   0.67515   0.43705   0.00000  Uiso   1.00
C206   C     0.79836   0.65305   0.46842   0.00000  Uiso   1.00
C207   C     0.80277   0.60309   0.55857   0.00000  Uiso   1.00
H208   H     0.56846   0.65898   0.48945   0.00000  Uiso   1.00
H209   H     0.51998   0.61805   0.27728   0.00000  Uiso   1.00
H210   H     0.53189   0.77380   0.57930   0.00000  Uiso   1.00
H211   H     0.63750   0.57762   0.62767   0.00000  Uiso   1.00
H212   H     0.49146   0.58453   0.01705   0.00000  Uiso   1.00
H213   H     0.51657   0.91293   0.65392   0.00000  Uiso   1.00
H214   H     0.73928   0.49925   0.75593   0.00000  Uiso   1.00
H215   H     0.76293   0.75018   0.29690   0.00000  Uiso   1.00
H216   H     0.72512   0.71426   0.07415   0.00000  Uiso   1.00
H217   H     0.73702   0.87001   0.37618   0.00000  Uiso   1.00
H218   H     0.84264   0.67383   0.42455   0.00000  Uiso   1.00
H219   H     0.65795   0.66262   0.85218   0.00000  Uiso   1.00
H220   H     0.68307   0.99102   0.48906   0.00000  Uiso   1.00
H221   H     0.90578   0.57734   0.59107   0.00000  Uiso   1.00
O222   O     0.54631   0.59831   0.79156   0.00000  Uiso   1.00
O223   O     0.57927   0.02915   0.62713   0.00000  Uiso   1.00
O224   O     0.87146   0.48642   0.76096   0.00000  Uiso   1.00
N225   N     0.53584   0.60783   0.00882   0.00000  Uiso   1.00
N226   N     0.55931   0.91486   0.60424   0.00000  Uiso   1.00
N227   N     0.76753   0.52812   0.69964   0.00000  Uiso   1.00
N228   N     0.62543   0.64984   0.92011   0.00000  Uiso   1.00
N229   N     0.64890   0.95688   0.51553   0.00000  Uiso   1.00
N230   N     0.85712   0.57014   0.61093   0.00000  Uiso   1.00
C231   C     0.11301   0.17987   0.94533   0.00000  Uiso   1.00
C232   C     0.11364   0.17027   0.80335   0.00000  Uiso   1.00
C233   C     0.06426   0.13881   0.73339   0.00000  Uiso   1.00
C234   C     0.07414   0.13513   0.60460   0.00000  Uiso   1.00
C235   C     0.06640   0.11617   0.39275   0.00000  Uiso   1.00
C236   C     0.12011   0.25490   0.96744   0.00000  Uiso   1.00
C237   C     0.07616   0.29458   0.03545   0.00000  Uiso   1.00
C238   C     0.09149   0.36214   0.04480   0.00000  Uiso   1.00
C239   C     0.09381   0.47456   0.08778   0.00000  Uiso   1.00
C240   C     0.17749   0.14831   0.99371   0.00000  Uiso   1.00
C241   C     0.18180   0.09838   0.08385   0.00000  Uiso   1.00
C242   C     0.24544   0.07620   0.11534   0.00000  Uiso   1.00
C243   C     0.33685   0.02312   0.19911   0.00000  Uiso   1.00
C244   C     0.21837   0.22929   0.84101   0.00000  Uiso   1.00
C245   C     0.17087   0.19712   0.74670   0.00000  Uiso   1.00
C246   C     0.18083   0.19348   0.61797   0.00000  Uiso   1.00
C247   C     0.13147   0.16201   0.54783   0.00000  Uiso   1.00
C248   C     0.17733   0.28174   0.91078   0.00000  Uiso   1.00
C249   C     0.19273   0.34925   0.92004   0.00000  Uiso   1.00
C250   C     0.14882   0.38903   0.98804   0.00000  Uiso   1.00
C251   C     0.23472   0.17515   0.93705   0.00000  Uiso   1.00
C252   C     0.29836   0.15305   0.96842   0.00000  Uiso   1.00
C253   C     0.30277   0.10309   0.05857   0.00000  Uiso   1.00
H254   H     0.06846   0.15898   0.98945   0.00000  Uiso   1.00
H255   H     0.01998   0.11805   0.77728   0.00000  Uiso   1.00
H256   H     0.03189   0.27380   0.07930   0.00000  Uiso   1.00
H257   H     0.13750   0.07762   0.12767   0.00000  Uiso   1.00
H258   H     0.99146   0.08453   0.51705   0.00000  Uiso   1.00
H259   H     0.01657   0.41293   0.15392   0.00000  Uiso   1.00
H260   H     0.23928   0.99925   0.25593   0.00000  Uiso   1.00
H261   H     0.26293   0.25018   0.79690   0.00000  Uiso   1.00
H262   H     0.22512   0.21426   0.57415   0.00000  Uiso   1.00
H263   H     0.23702   0.37001   0.87618   0.00000  Uiso   1.00
H264   H     0.34264   0.17383   0.92455   0.00000  Uiso   1.00
H265   H     0.15795   0.16262   0.35218   0.00000  Uiso   1.00
H266   H     0.18307   0.49102   0.98906   0.00000  Uiso   1.00
H267   H     0.40578   0.07734   0.09107   0.00000  Uiso   1.00
O268   O     0.04631   0.09831   0.29156   0.00000  Uiso   1.00
O269   O     0.07927   0.52915   0.12713   0.00000  Uiso   1.00
O270   O     0.37146   0.98642   0.26096   0.00000  Uiso   1.00
N271   N     0.03584   0.10783   0.50882   0.00000  Uiso   1.00
N272   N     0.05931   0.41486   0.10424   0.00000  Uiso   1.00
N273   N     0.26753   0.02812   0.19964   0.00000  Uiso   1.00
N274   N     0.12543   0.14984   0.42011   0.00000  Uiso   1.00
N275   N     0.14890   0.45688   0.01553   0.00000  Uiso   1.00
N276   N     0.35712   0.07014   0.11093   0.00000  Uiso   1.00
C277   C     0.38699   0.32013   0.44533   0.00000  Uiso   1.00
C278   C     0.38636   0.32973   0.30335   0.00000  Uiso   1.00
C279   C     0.43574   0.36119   0.23339   0.00000  Uiso   1.00
C280   C     0.42586   0.36487   0.10460   0.00000  Uiso   1.00
C281   C     0.43360   0.38383   0.89275   0.00000  Uiso   1.00
C282   C     0.37989   0.24510   0.46744   0.00000  Uiso   1.00
C283   C     0.42384   0.20542   0.53545   0.00000  Uiso   1.00
C284   C     0.40851   0.13786   0.54480   0.00000  Uiso   1.00
C285   C     0.40619   0.02544   0.58778   0.00000  Uiso   1.00
C286   C     0.32251   0.35169   0.49371   0.00000  Uiso   1.00
C287   C     0.31820   0.40162   0.58385   0.00000  Uiso   1.00
C288   C     0.25456   0.42380   0.61534   0.00000  Uiso   1.00
C289   C     0.16315   0.47688   0.69911   0.00000  Uiso   1.00
C290   C     0.28163   0.27071   0.34101   0.00000  Uiso   1.00
C291   C     0.32913   0.30288   0.24670   0.00000  Uiso   1.00
C292   C     0.31917   0.30652   0.11797   0.00000  Uiso   1.00
C293   C     0.36853   0.33799   0.04783   0.00000  Uiso   1.00
C294   C     0.32267   0.21826   0.41078   0.00000  Uiso   1.00
C295   C     0.30727   0.15075   0.42004   0.00000  Uiso   1.00
C296   C     0.35118   0.11097   0.48804   0.00000  Uiso   1.00
C297   C     0.26528   0.32485   0.43705   0.00000  Uiso   1.00
C298   C     0.20164   0.34695   0.46842   0.00000  Uiso   1.00
C299   C     0.19723   0.39691   0.55857   0.00000  Uiso   1.00
H300   H     0.43154   0.34102   0.48945   0.00000  Uiso   1.00
H301   H     0.48002   0.38195   0.27728   0.00000  Uiso   1.00
H302   H     0.46811   0.22620   0.57930   0.00000  Uiso   1.00
H303   H     0.36250   0.42238   0.62767   0.00000  Uiso   1.00
H304   H     0.50854   0.41547   0.01705   0.00000  Uiso   1.00
H305   H     0.48343   0.08707   0.65392   0.00000  Uiso   1.00
H306   H     0.26072   0.50075   0.75593   0.00000  Uiso   1.00
H307   H     0.23707   0.24982   0.29690   0.00000  Uiso   1.00
H308   H     0.27488   0.28574   0.07415   0.00000  Uiso   1.00
H309   H     0.26298   0.12999   0.37618   0.00000  Uiso   1.00
H310   H     0.15736   0.32617   0.42455   0.00000  Uiso   1.00
H311   H     0.34205   0.33738   0.85218   0.00000  Uiso   1.00
H312   H     0.31693   0.00898   0.48906   0.00000  Uiso   1.00
H313   H     0.09422   0.42266   0.59107   0.00000  Uiso   1.00
O314   O     0.45369   0.40169   0.79156   0.00000  Uiso   1.00
O315   O     0.42073   0.97085   0.62713   0.00000  Uiso   1.00
O316   O     0.12854   0.51358   0.76096   0.00000  Uiso   1.00
N317   N     0.46416   0.39217   0.00882   0.00000  Uiso   1.00
N318   N     0.44069   0.08514   0.60424   0.00000  Uiso   1.00
N319   N     0.23247   0.47188   0.69964   0.00000  Uiso   1.00
N320   N     0.37457   0.35016   0.92011   0.00000  Uiso   1.00
N321   N     0.35110   0.04312   0.51553   0.00000  Uiso   1.00
N322   N     0.14288   0.42986   0.61093   0.00000  Uiso   1.00
C323   C     0.88699   0.82013   0.94533   0.00000  Uiso   1.00
C324   C     0.88636   0.82973   0.80335   0.00000  Uiso   1.00
C325   C     0.93574   0.86119   0.73339   0.00000  Uiso   1.00
C326   C     0.92586   0.86487   0.60460   0.00000  Uiso   1.00
C327   C     0.93360   0.88383   0.39275   0.00000  Uiso   1.00
C328   C     0.87989   0.74510   0.96744   0.00000  Uiso   1.00
C329   C     0.92384   0.70542   0.03545   0.00000  Uiso   1.00
C330   C     0.90851   0.63786   0.04480   0.00000  Uiso   1.00
C331   C     0.90619   0.52544   0.08778   0.00000  Uiso   1.00
C332   C     0.82251   0.85169   0.99371   0.00000  Uiso   1.00
C333   C     0.81820   0.90162   0.08385   0.00000  Uiso   1.00
C334   C     0.75456   0.92380   0.11534   0.00000  Uiso   1.00
C335   C     0.66315   0.97688   0.19911   0.00000  Uiso   1.00
C336   C     0.78163   0.77071   0.84101   0.00000  Uiso   1.00
C337   C     0.82913   0.80288   0.74670   0.00000  Uiso   1.00
C338   C     0.81917   0.80652   0.61797   0.00000  Uiso   1.00
C339   C     0.86853   0.83799   0.54783   0.00000  Uiso   1.00
C340   C     0.82267   0.71826   0.91078   0.00000  Uiso   1.00
C341   C     0.80727   0.65075   0.92004   0.00000  Uiso   1.00
C342   C     0.85118   0.61097   0.98804   0.00000  Uiso   1.00
C343   C     0.76528   0.82485   0.93705   0.00000  Uiso   1.00
C344   C     0.70164   0.84695   0.96842   0.00000  Uiso   1.00
C345   C     0.69723   0.89691   0.05857   0.00000  Uiso   1.00
H346   H     0.93154   0.84102   0.98945   0.00000  Uiso   1.00
H347   H     0.98002   0.88195   0.77728   0.00000  Uiso   1.00
H348   H     0.96811   0.72620   0.07930   0.00000  Uiso   1.00
H349   H     0.86250   0.92238   0.12767   0.00000  Uiso   1.00
H350   H     0.00854   0.91547   0.51705   0.00000  Uiso   1.00
H351   H     0.98343   0.58707   0.15392   0.00000  Uiso   1.00
H352   H     0.76072   0.00075   0.25593   0.00000  Uiso   1.00
H353   H     0.73707   0.74982   0.79690   0.00000  Uiso   1.00
H354   H     0.77488   0.78574   0.57415   0.00000  Uiso   1.00
H355   H     0.76298   0.62999   0.87618   0.00000  Uiso   1.00
H356   H     0.65736   0.82617   0.92455   0.00000  Uiso   1.00
H357   H     0.84205   0.83738   0.35218   0.00000  Uiso   1.00
H358   H     0.81693   0.50898   0.98906   0.00000  Uiso   1.00
H359   H     0.59422   0.92266   0.09107   0.00000  Uiso   1.00
O360   O     0.95369   0.90169   0.29156   0.00000  Uiso   1.00
O361   O     0.92073   0.47085   0.12713   0.00000  Uiso   1.00
O362   O     0.62854   0.01358   0.26096   0.00000  Uiso   1.00
N363   N     0.96416   0.89217   0.50882   0.00000  Uiso   1.00
N364   N     0.94069   0.58514   0.10424   0.00000  Uiso   1.00
N365   N     0.73247   0.97188   0.19964   0.00000  Uiso   1.00
N366   N     0.87457   0.85016   0.42011   0.00000  Uiso   1.00
N367   N     0.85110   0.54312   0.01553   0.00000  Uiso   1.00
N368   N     0.64288   0.92986   0.11093   0.00000  Uiso   1.00
