data_job_03330
_audit_creation_date              2018-12-19
_audit_creation_method            'Materials Studio'
_symmetry_space_group_name_H-M    'P1'
_symmetry_Int_Tables_number       1
_symmetry_cell_setting            triclinic
loop_
_symmetry_equiv_pos_as_xyz
  x,y,z
_cell_length_a                    12.9999
_cell_length_b                    12.9999
_cell_length_c                    30.3293
_cell_angle_alpha                 90.0000
_cell_angle_beta                  90.0000
_cell_angle_gamma                 120.0000
loop_
_atom_site_label
_atom_site_type_symbol
_atom_site_fract_x
_atom_site_fract_y
_atom_site_fract_z
_atom_site_U_iso_or_equiv
_atom_site_adp_type
_atom_site_occupancy
C1     C     0.92217   0.83534   0.18425   0.00000  Uiso   1.00
C2     C     0.88959   0.77603   0.13906   0.00000  Uiso   1.00
C3     C     0.93787   0.83114   0.09911   0.00000  Uiso   1.00
C4     C     0.89623   0.76153   0.06144   0.00000  Uiso   1.00
C5     C     0.85880   0.68775   0.99094   0.00000  Uiso   1.00
C6     C     0.80627   0.81523   0.20460   0.00000  Uiso   1.00
C7     C     0.78451   0.90330   0.21975   0.00000  Uiso   1.00
C8     C     0.67274   0.86668   0.23725   0.00000  Uiso   1.00
C9     C     0.50599   0.85376   0.26852   0.00000  Uiso   1.00
C10    C     0.96114   0.76289   0.21192   0.00000  Uiso   1.00
C11    C     0.06958   0.80697   0.23324   0.00000  Uiso   1.00
C12    C     0.08819   0.72629   0.25691   0.00000  Uiso   1.00
C13    C     0.16189   0.63211   0.29955   0.00000  Uiso   1.00
C14    C     0.76238   0.61370   0.18839   0.00000  Uiso   1.00
C15    C     0.80279   0.65564   0.14131   0.00000  Uiso   1.00
C16    C     0.76108   0.58592   0.10369   0.00000  Uiso   1.00
C17    C     0.80929   0.64092   0.06369   0.00000  Uiso   1.00
C18    C     0.71948   0.69485   0.20685   0.00000  Uiso   1.00
C19    C     0.60772   0.65808   0.22433   0.00000  Uiso   1.00
C20    C     0.58579   0.74608   0.23951   0.00000  Uiso   1.00
C21    C     0.87435   0.64250   0.21417   0.00000  Uiso   1.00
C22    C     0.89279   0.56175   0.23782   0.00000  Uiso   1.00
C23    C     0.00124   0.60569   0.25917   0.00000  Uiso   1.00
H24    H     0.98974   0.92907   0.18250   0.00000  Uiso   1.00
H25    H     0.00503   0.92431   0.09738   0.00000  Uiso   1.00
H26    H     0.85170   0.99646   0.21801   0.00000  Uiso   1.00
H27    H     0.13672   0.90013   0.23149   0.00000  Uiso   1.00
H28    H     0.98367   0.86595   0.00401   0.00000  Uiso   1.00
H29    H     0.66038   0.01808   0.25837   0.00000  Uiso   1.00
H30    H     0.26141   0.81497   0.28680   0.00000  Uiso   1.00
H31    H     0.69480   0.51997   0.19014   0.00000  Uiso   1.00
H32    H     0.69391   0.49276   0.10544   0.00000  Uiso   1.00
H33    H     0.54058   0.56491   0.22607   0.00000  Uiso   1.00
H34    H     0.82560   0.46859   0.23955   0.00000  Uiso   1.00
H35    H     0.73115   0.51569   0.01055   0.00000  Uiso   1.00
H36    H     0.40787   0.66782   0.26491   0.00000  Uiso   1.00
H37    H     0.00890   0.46471   0.29334   0.00000  Uiso   1.00
O38    O     0.86212   0.68031   0.95142   0.00000  Uiso   1.00
O39    O     0.43799   0.87990   0.28514   0.00000  Uiso   1.00
O40    O     0.22653   0.61342   0.32244   0.00000  Uiso   1.00
N41    N     0.92438   0.78725   0.01717   0.00000  Uiso   1.00
N42    N     0.62212   0.92948   0.25498   0.00000  Uiso   1.00
N43    N     0.18402   0.73959   0.28157   0.00000  Uiso   1.00
N44    N     0.78850   0.59878   0.02069   0.00000  Uiso   1.00
N45    N     0.48624   0.74101   0.25850   0.00000  Uiso   1.00
N46    N     0.04814   0.55112   0.28509   0.00000  Uiso   1.00
C47    C     0.16466   0.08683   0.85091   0.00000  Uiso   1.00
C48    C     0.22397   0.11356   0.80573   0.00000  Uiso   1.00
C49    C     0.16886   0.10673   0.76578   0.00000  Uiso   1.00
C50    C     0.23847   0.13471   0.72811   0.00000  Uiso   1.00
C51    C     0.31225   0.17105   0.65760   0.00000  Uiso   1.00
C52    C     0.18477   0.99104   0.87126   0.00000  Uiso   1.00
C53    C     0.09670   0.88121   0.88642   0.00000  Uiso   1.00
C54    C     0.13332   0.80606   0.90392   0.00000  Uiso   1.00
C55    C     0.14624   0.65223   0.93519   0.00000  Uiso   1.00
C56    C     0.23711   0.19824   0.87859   0.00000  Uiso   1.00
C57    C     0.19303   0.26261   0.89991   0.00000  Uiso   1.00
C58    C     0.27371   0.36190   0.92358   0.00000  Uiso   1.00
C59    C     0.36789   0.52978   0.96622   0.00000  Uiso   1.00
C60    C     0.38630   0.14868   0.85506   0.00000  Uiso   1.00
C61    C     0.34436   0.14715   0.80798   0.00000  Uiso   1.00
C62    C     0.41408   0.17516   0.77036   0.00000  Uiso   1.00
C63    C     0.35908   0.16837   0.73036   0.00000  Uiso   1.00
C64    C     0.30515   0.02463   0.87351   0.00000  Uiso   1.00
C65    C     0.34192   0.94964   0.89100   0.00000  Uiso   1.00
C66    C     0.25392   0.83971   0.90617   0.00000  Uiso   1.00
C67    C     0.35750   0.23184   0.88084   0.00000  Uiso   1.00
C68    C     0.43825   0.33104   0.90449   0.00000  Uiso   1.00
C69    C     0.39431   0.39555   0.92584   0.00000  Uiso   1.00
H70    H     0.07093   0.06066   0.84916   0.00000  Uiso   1.00
H71    H     0.07569   0.08071   0.76405   0.00000  Uiso   1.00
H72    H     0.00354   0.85524   0.88468   0.00000  Uiso   1.00
H73    H     0.09987   0.23659   0.89816   0.00000  Uiso   1.00
H74    H     0.13405   0.11772   0.67068   0.00000  Uiso   1.00
H75    H     0.98192   0.64230   0.92503   0.00000  Uiso   1.00
H76    H     0.18503   0.44645   0.95347   0.00000  Uiso   1.00
H77    H     0.48003   0.17483   0.85681   0.00000  Uiso   1.00
H78    H     0.50724   0.20115   0.77211   0.00000  Uiso   1.00
H79    H     0.43509   0.97567   0.89274   0.00000  Uiso   1.00
H80    H     0.53141   0.35701   0.90622   0.00000  Uiso   1.00
H81    H     0.48431   0.21546   0.67722   0.00000  Uiso   1.00
H82    H     0.33218   0.74004   0.93158   0.00000  Uiso   1.00
H83    H     0.53529   0.54419   0.96001   0.00000  Uiso   1.00
O84    O     0.31969   0.18180   0.61809   0.00000  Uiso   1.00
O85    O     0.12010   0.55809   0.95181   0.00000  Uiso   1.00
O86    O     0.38658   0.61311   0.98911   0.00000  Uiso   1.00
N87    N     0.21275   0.13713   0.68384   0.00000  Uiso   1.00
N88    N     0.07052   0.69264   0.92164   0.00000  Uiso   1.00
N89    N     0.26041   0.44443   0.94824   0.00000  Uiso   1.00
N90    N     0.40122   0.18973   0.68736   0.00000  Uiso   1.00
N91    N     0.25899   0.74524   0.92517   0.00000  Uiso   1.00
N92    N     0.44888   0.49703   0.95176   0.00000  Uiso   1.00
C93    C     0.91317   0.07783   0.51758   0.00000  Uiso   1.00
C94    C     0.88644   0.11041   0.47240   0.00000  Uiso   1.00
C95    C     0.89327   0.06213   0.43244   0.00000  Uiso   1.00
C96    C     0.86529   0.10377   0.39477   0.00000  Uiso   1.00
C97    C     0.82895   0.14120   0.32427   0.00000  Uiso   1.00
C98    C     0.00896   0.19373   0.53793   0.00000  Uiso   1.00
C99    C     0.11879   0.21549   0.55308   0.00000  Uiso   1.00
C100   C     0.19394   0.32726   0.57058   0.00000  Uiso   1.00
C101   C     0.34777   0.49401   0.60185   0.00000  Uiso   1.00
C102   C     0.80176   0.03886   0.54525   0.00000  Uiso   1.00
C103   C     0.73739   0.93042   0.56657   0.00000  Uiso   1.00
C104   C     0.63810   0.91181   0.59025   0.00000  Uiso   1.00
C105   C     0.47022   0.83811   0.63288   0.00000  Uiso   1.00
C106   C     0.85132   0.23762   0.52172   0.00000  Uiso   1.00
C107   C     0.85285   0.19721   0.47465   0.00000  Uiso   1.00
C108   C     0.82484   0.23892   0.43703   0.00000  Uiso   1.00
C109   C     0.83163   0.19071   0.39703   0.00000  Uiso   1.00
C110   C     0.97537   0.28052   0.54018   0.00000  Uiso   1.00
C111   C     0.05036   0.39228   0.55767   0.00000  Uiso   1.00
C112   C     0.16029   0.41421   0.57284   0.00000  Uiso   1.00
C113   C     0.76816   0.12565   0.54750   0.00000  Uiso   1.00
C114   C     0.66896   0.10721   0.57115   0.00000  Uiso   1.00
C115   C     0.60445   0.99876   0.59250   0.00000  Uiso   1.00
H116   H     0.93934   0.01026   0.51583   0.00000  Uiso   1.00
H117   H     0.91929   0.99497   0.43072   0.00000  Uiso   1.00
H118   H     0.14476   0.14830   0.55134   0.00000  Uiso   1.00
H119   H     0.76341   0.86328   0.56482   0.00000  Uiso   1.00
H120   H     0.88228   0.01633   0.33734   0.00000  Uiso   1.00
H121   H     0.35770   0.33962   0.59170   0.00000  Uiso   1.00
H122   H     0.55355   0.73859   0.62013   0.00000  Uiso   1.00
H123   H     0.82517   0.30520   0.52348   0.00000  Uiso   1.00
H124   H     0.79885   0.30609   0.43878   0.00000  Uiso   1.00
H125   H     0.02433   0.45942   0.55940   0.00000  Uiso   1.00
H126   H     0.64299   0.17440   0.57289   0.00000  Uiso   1.00
H127   H     0.78454   0.26885   0.34388   0.00000  Uiso   1.00
H128   H     0.25996   0.59213   0.59825   0.00000  Uiso   1.00
H129   H     0.45581   0.99110   0.62668   0.00000  Uiso   1.00
O130   O     0.81820   0.13788   0.28476   0.00000  Uiso   1.00
O131   O     0.44191   0.56201   0.61848   0.00000  Uiso   1.00
O132   O     0.38689   0.77347   0.65578   0.00000  Uiso   1.00
N133   N     0.86287   0.07562   0.35051   0.00000  Uiso   1.00
N134   N     0.30736   0.37788   0.58831   0.00000  Uiso   1.00
N135   N     0.55557   0.81598   0.61490   0.00000  Uiso   1.00
N136   N     0.81027   0.21150   0.35403   0.00000  Uiso   1.00
N137   N     0.25476   0.51376   0.59183   0.00000  Uiso   1.00
N138   N     0.50297   0.95186   0.61842   0.00000  Uiso   1.00
C139   C     0.83534   0.92217   0.81575   0.00000  Uiso   1.00
C140   C     0.77603   0.88959   0.86094   0.00000  Uiso   1.00
C141   C     0.83114   0.93787   0.90089   0.00000  Uiso   1.00
C142   C     0.76153   0.89623   0.93856   0.00000  Uiso   1.00
C143   C     0.68775   0.85880   0.00906   0.00000  Uiso   1.00
C144   C     0.81523   0.80627   0.79540   0.00000  Uiso   1.00
C145   C     0.90330   0.78451   0.78025   0.00000  Uiso   1.00
C146   C     0.86668   0.67274   0.76275   0.00000  Uiso   1.00
C147   C     0.85376   0.50599   0.73148   0.00000  Uiso   1.00
C148   C     0.76289   0.96114   0.78808   0.00000  Uiso   1.00
C149   C     0.80697   0.06958   0.76676   0.00000  Uiso   1.00
C150   C     0.72629   0.08819   0.74309   0.00000  Uiso   1.00
C151   C     0.63211   0.16189   0.70045   0.00000  Uiso   1.00
C152   C     0.61370   0.76238   0.81161   0.00000  Uiso   1.00
C153   C     0.65564   0.80279   0.85869   0.00000  Uiso   1.00
C154   C     0.58592   0.76108   0.89631   0.00000  Uiso   1.00
C155   C     0.64092   0.80929   0.93631   0.00000  Uiso   1.00
C156   C     0.69485   0.71948   0.79315   0.00000  Uiso   1.00
C157   C     0.65808   0.60772   0.77567   0.00000  Uiso   1.00
C158   C     0.74608   0.58579   0.76049   0.00000  Uiso   1.00
C159   C     0.64250   0.87435   0.78583   0.00000  Uiso   1.00
C160   C     0.56175   0.89279   0.76218   0.00000  Uiso   1.00
C161   C     0.60569   0.00124   0.74083   0.00000  Uiso   1.00
H162   H     0.92907   0.98974   0.81750   0.00000  Uiso   1.00
H163   H     0.92431   0.00503   0.90262   0.00000  Uiso   1.00
H164   H     0.99646   0.85170   0.78199   0.00000  Uiso   1.00
H165   H     0.90013   0.13672   0.76851   0.00000  Uiso   1.00
H166   H     0.86595   0.98367   0.99599   0.00000  Uiso   1.00
H167   H     0.01808   0.66038   0.74163   0.00000  Uiso   1.00
H168   H     0.81497   0.26141   0.71320   0.00000  Uiso   1.00
H169   H     0.51997   0.69480   0.80986   0.00000  Uiso   1.00
H170   H     0.49276   0.69391   0.89456   0.00000  Uiso   1.00
H171   H     0.56491   0.54058   0.77393   0.00000  Uiso   1.00
H172   H     0.46859   0.82560   0.76045   0.00000  Uiso   1.00
H173   H     0.51569   0.73115   0.98945   0.00000  Uiso   1.00
H174   H     0.66782   0.40787   0.73509   0.00000  Uiso   1.00
H175   H     0.46471   0.00890   0.70666   0.00000  Uiso   1.00
O176   O     0.68031   0.86212   0.04858   0.00000  Uiso   1.00
O177   O     0.87990   0.43799   0.71486   0.00000  Uiso   1.00
O178   O     0.61342   0.22653   0.67756   0.00000  Uiso   1.00
N179   N     0.78725   0.92438   0.98283   0.00000  Uiso   1.00
N180   N     0.92948   0.62212   0.74502   0.00000  Uiso   1.00
N181   N     0.73959   0.18402   0.71843   0.00000  Uiso   1.00
N182   N     0.59878   0.78850   0.97931   0.00000  Uiso   1.00
N183   N     0.74101   0.48624   0.74150   0.00000  Uiso   1.00
N184   N     0.55112   0.04814   0.71491   0.00000  Uiso   1.00
C185   C     0.08683   0.16466   0.14909   0.00000  Uiso   1.00
C186   C     0.11356   0.22397   0.19427   0.00000  Uiso   1.00
C187   C     0.10673   0.16886   0.23422   0.00000  Uiso   1.00
C188   C     0.13471   0.23847   0.27189   0.00000  Uiso   1.00
C189   C     0.17105   0.31225   0.34240   0.00000  Uiso   1.00
C190   C     0.99104   0.18477   0.12874   0.00000  Uiso   1.00
C191   C     0.88121   0.09670   0.11358   0.00000  Uiso   1.00
C192   C     0.80606   0.13332   0.09608   0.00000  Uiso   1.00
C193   C     0.65223   0.14624   0.06481   0.00000  Uiso   1.00
C194   C     0.19824   0.23711   0.12141   0.00000  Uiso   1.00
C195   C     0.26261   0.19303   0.10009   0.00000  Uiso   1.00
C196   C     0.36190   0.27371   0.07642   0.00000  Uiso   1.00
C197   C     0.52978   0.36789   0.03378   0.00000  Uiso   1.00
C198   C     0.14868   0.38630   0.14494   0.00000  Uiso   1.00
C199   C     0.14715   0.34436   0.19202   0.00000  Uiso   1.00
C200   C     0.17516   0.41408   0.22964   0.00000  Uiso   1.00
C201   C     0.16837   0.35908   0.26964   0.00000  Uiso   1.00
C202   C     0.02463   0.30515   0.12649   0.00000  Uiso   1.00
C203   C     0.94964   0.34192   0.10900   0.00000  Uiso   1.00
C204   C     0.83971   0.25392   0.09383   0.00000  Uiso   1.00
C205   C     0.23184   0.35750   0.11916   0.00000  Uiso   1.00
C206   C     0.33104   0.43825   0.09551   0.00000  Uiso   1.00
C207   C     0.39555   0.39431   0.07416   0.00000  Uiso   1.00
H208   H     0.06066   0.07093   0.15084   0.00000  Uiso   1.00
H209   H     0.08071   0.07569   0.23595   0.00000  Uiso   1.00
H210   H     0.85524   0.00354   0.11532   0.00000  Uiso   1.00
H211   H     0.23659   0.09987   0.10184   0.00000  Uiso   1.00
H212   H     0.11772   0.13405   0.32932   0.00000  Uiso   1.00
H213   H     0.64230   0.98192   0.07497   0.00000  Uiso   1.00
H214   H     0.44645   0.18503   0.04653   0.00000  Uiso   1.00
H215   H     0.17483   0.48003   0.14319   0.00000  Uiso   1.00
H216   H     0.20115   0.50724   0.22789   0.00000  Uiso   1.00
H217   H     0.97567   0.43509   0.10726   0.00000  Uiso   1.00
H218   H     0.35701   0.53141   0.09378   0.00000  Uiso   1.00
H219   H     0.21546   0.48431   0.32278   0.00000  Uiso   1.00
H220   H     0.74004   0.33218   0.06842   0.00000  Uiso   1.00
H221   H     0.54419   0.53529   0.03999   0.00000  Uiso   1.00
O222   O     0.18180   0.31969   0.38191   0.00000  Uiso   1.00
O223   O     0.55809   0.12010   0.04819   0.00000  Uiso   1.00
O224   O     0.61311   0.38658   0.01089   0.00000  Uiso   1.00
N225   N     0.13713   0.21275   0.31616   0.00000  Uiso   1.00
N226   N     0.69264   0.07052   0.07836   0.00000  Uiso   1.00
N227   N     0.44443   0.26041   0.05176   0.00000  Uiso   1.00
N228   N     0.18973   0.40122   0.31264   0.00000  Uiso   1.00
N229   N     0.74524   0.25899   0.07483   0.00000  Uiso   1.00
N230   N     0.49703   0.44888   0.04824   0.00000  Uiso   1.00
C231   C     0.07783   0.91317   0.48242   0.00000  Uiso   1.00
C232   C     0.11041   0.88644   0.52760   0.00000  Uiso   1.00
C233   C     0.06213   0.89327   0.56756   0.00000  Uiso   1.00
C234   C     0.10377   0.86529   0.60523   0.00000  Uiso   1.00
C235   C     0.14120   0.82895   0.67573   0.00000  Uiso   1.00
C236   C     0.19373   0.00896   0.46207   0.00000  Uiso   1.00
C237   C     0.21549   0.11879   0.44692   0.00000  Uiso   1.00
C238   C     0.32726   0.19394   0.42942   0.00000  Uiso   1.00
C239   C     0.49401   0.34777   0.39815   0.00000  Uiso   1.00
C240   C     0.03886   0.80176   0.45475   0.00000  Uiso   1.00
C241   C     0.93042   0.73739   0.43343   0.00000  Uiso   1.00
C242   C     0.91181   0.63810   0.40975   0.00000  Uiso   1.00
C243   C     0.83811   0.47022   0.36712   0.00000  Uiso   1.00
C244   C     0.23762   0.85132   0.47828   0.00000  Uiso   1.00
C245   C     0.19721   0.85285   0.52535   0.00000  Uiso   1.00
C246   C     0.23892   0.82484   0.56297   0.00000  Uiso   1.00
C247   C     0.19071   0.83163   0.60297   0.00000  Uiso   1.00
C248   C     0.28052   0.97537   0.45982   0.00000  Uiso   1.00
C249   C     0.39228   0.05036   0.44233   0.00000  Uiso   1.00
C250   C     0.41421   0.16029   0.42716   0.00000  Uiso   1.00
C251   C     0.12565   0.76816   0.45250   0.00000  Uiso   1.00
C252   C     0.10721   0.66896   0.42885   0.00000  Uiso   1.00
C253   C     0.99876   0.60445   0.40750   0.00000  Uiso   1.00
H254   H     0.01026   0.93934   0.48417   0.00000  Uiso   1.00
H255   H     0.99497   0.91929   0.56928   0.00000  Uiso   1.00
H256   H     0.14830   0.14476   0.44866   0.00000  Uiso   1.00
H257   H     0.86328   0.76341   0.43518   0.00000  Uiso   1.00
H258   H     0.01633   0.88228   0.66266   0.00000  Uiso   1.00
H259   H     0.33962   0.35770   0.40830   0.00000  Uiso   1.00
H260   H     0.73859   0.55355   0.37987   0.00000  Uiso   1.00
H261   H     0.30520   0.82517   0.47652   0.00000  Uiso   1.00
H262   H     0.30609   0.79885   0.56122   0.00000  Uiso   1.00
H263   H     0.45942   0.02433   0.44060   0.00000  Uiso   1.00
H264   H     0.17440   0.64299   0.42711   0.00000  Uiso   1.00
H265   H     0.26885   0.78454   0.65612   0.00000  Uiso   1.00
H266   H     0.59213   0.25996   0.40175   0.00000  Uiso   1.00
H267   H     0.99110   0.45581   0.37332   0.00000  Uiso   1.00
O268   O     0.13788   0.81820   0.71524   0.00000  Uiso   1.00
O269   O     0.56201   0.44191   0.38152   0.00000  Uiso   1.00
O270   O     0.77347   0.38689   0.34422   0.00000  Uiso   1.00
N271   N     0.07562   0.86287   0.64949   0.00000  Uiso   1.00
N272   N     0.37788   0.30736   0.41169   0.00000  Uiso   1.00
N273   N     0.81598   0.55557   0.38510   0.00000  Uiso   1.00
N274   N     0.21150   0.81027   0.64597   0.00000  Uiso   1.00
N275   N     0.51376   0.25476   0.40817   0.00000  Uiso   1.00
N276   N     0.95186   0.50297   0.38158   0.00000  Uiso   1.00
