data_job_00235
_audit_creation_date              2018-12-19
_audit_creation_method            'Materials Studio'
_symmetry_space_group_name_H-M    'P1'
_symmetry_Int_Tables_number       1
_symmetry_cell_setting            triclinic
loop_
_symmetry_equiv_pos_as_xyz
  x,y,z
_cell_length_a                    13.8042
_cell_length_b                    25.3063
_cell_length_c                    18.3062
_cell_angle_alpha                 90.0000
_cell_angle_beta                  136.6773
_cell_angle_gamma                 90.0000
loop_
_atom_site_label
_atom_site_type_symbol
_atom_site_fract_x
_atom_site_fract_y
_atom_site_fract_z
_atom_site_U_iso_or_equiv
_atom_site_adp_type
_atom_site_occupancy
C1     C     0.33469   0.43333   0.75602   0.00000  Uiso   1.00
C2     C     0.32446   0.40772   0.67519   0.00000  Uiso   1.00
C3     C     0.26707   0.43085   0.58172   0.00000  Uiso   1.00
C4     C     0.26757   0.40092   0.51843   0.00000  Uiso   1.00
C5     C     0.24311   0.36893   0.38845   0.00000  Uiso   1.00
C6     C     0.25966   0.39594   0.76740   0.00000  Uiso   1.00
C7     C     0.14781   0.40917   0.75148   0.00000  Uiso   1.00
C8     C     0.09378   0.36932   0.76584   0.00000  Uiso   1.00
C9     C     0.96879   0.31906   0.77909   0.00000  Uiso   1.00
C10    C     0.49050   0.43171   0.86237   0.00000  Uiso   1.00
C11    C     0.57273   0.47501   0.92631   0.00000  Uiso   1.00
C12    C     0.71305   0.46527   0.02064   0.00000  Uiso   1.00
C13    C     0.94647   0.47054   0.18134   0.00000  Uiso   1.00
C14    C     0.43765   0.33904   0.80987   0.00000  Uiso   1.00
C15    C     0.38038   0.35651   0.70444   0.00000  Uiso   1.00
C16    C     0.38098   0.32653   0.64129   0.00000  Uiso   1.00
C17    C     0.32360   0.34961   0.54773   0.00000  Uiso   1.00
C18    C     0.31558   0.34473   0.79665   0.00000  Uiso   1.00
C19    C     0.26171   0.30484   0.81105   0.00000  Uiso   1.00
C20    C     0.14980   0.31801   0.79514   0.00000  Uiso   1.00
C21    C     0.54642   0.38049   0.89162   0.00000  Uiso   1.00
C22    C     0.68664   0.37068   0.98587   0.00000  Uiso   1.00
C23    C     0.76907   0.41396   0.04994   0.00000  Uiso   1.00
H24    H     0.29115   0.47321   0.73326   0.00000  Uiso   1.00
H25    H     0.22379   0.47049   0.55910   0.00000  Uiso   1.00
H26    H     0.10456   0.44881   0.72885   0.00000  Uiso   1.00
H27    H     0.52942   0.51464   0.90365   0.00000  Uiso   1.00
H28    H     0.17372   0.44488   0.37890   0.00000  Uiso   1.00
H29    H     0.92235   0.39918   0.73686   0.00000  Uiso   1.00
H30    H     0.81825   0.53799   0.10546   0.00000  Uiso   1.00
H31    H     0.48118   0.29916   0.83264   0.00000  Uiso   1.00
H32    H     0.42426   0.28689   0.66394   0.00000  Uiso   1.00
H33    H     0.30502   0.26521   0.83368   0.00000  Uiso   1.00
H34    H     0.72988   0.33104   0.00848   0.00000  Uiso   1.00
H35    H     0.33642   0.29587   0.46399   0.00000  Uiso   1.00
H36    H     0.08505   0.25016   0.82195   0.00000  Uiso   1.00
H37    H     0.98095   0.38897   0.19055   0.00000  Uiso   1.00
O38    O     0.21415   0.36544   0.30866   0.00000  Uiso   1.00
O39    O     0.88438   0.30548   0.77830   0.00000  Uiso   1.00
O40    O     0.05977   0.48760   0.26189   0.00000  Uiso   1.00
N41    N     0.21985   0.41150   0.42209   0.00000  Uiso   1.00
N42    N     0.98482   0.36877   0.75674   0.00000  Uiso   1.00
N43    N     0.82240   0.49854   0.10137   0.00000  Uiso   1.00
N44    N     0.30740   0.33132   0.46787   0.00000  Uiso   1.00
N45    N     0.07237   0.28858   0.80253   0.00000  Uiso   1.00
N46    N     0.90995   0.41836   0.14715   0.00000  Uiso   1.00
C47    C     0.47774   0.08047   0.77452   0.00000  Uiso   1.00
C48    C     0.33620   0.10919   0.69718   0.00000  Uiso   1.00
C49    C     0.20737   0.08757   0.60622   0.00000  Uiso   1.00
C50    C     0.09005   0.12033   0.54596   0.00000  Uiso   1.00
C51    C     0.86857   0.15695   0.42133   0.00000  Uiso   1.00
C52    C     0.57558   0.11336   0.78014   0.00000  Uiso   1.00
C53    C     0.64804   0.09525   0.75893   0.00000  Uiso   1.00
C54    C     0.73225   0.13152   0.76852   0.00000  Uiso   1.00
C55    C     0.88249   0.17461   0.77275   0.00000  Uiso   1.00
C56    C     0.53566   0.08506   0.88375   0.00000  Uiso   1.00
C57    C     0.57459   0.04316   0.94968   0.00000  Uiso   1.00
C58    C     0.62522   0.05562   0.04653   0.00000  Uiso   1.00
C59    C     0.71348   0.05477   0.21163   0.00000  Uiso   1.00
C60    C     0.49848   0.17708   0.82928   0.00000  Uiso   1.00
C61    C     0.34747   0.16167   0.72693   0.00000  Uiso   1.00
C62    C     0.23031   0.19447   0.66680   0.00000  Uiso   1.00
C63    C     0.10133   0.17291   0.57576   0.00000  Uiso   1.00
C64    C     0.58684   0.16584   0.80988   0.00000  Uiso   1.00
C65    C     0.67097   0.20215   0.81951   0.00000  Uiso   1.00
C66    C     0.74353   0.18410   0.79832   0.00000  Uiso   1.00
C67    C     0.54692   0.13754   0.91350   0.00000  Uiso   1.00
C68    C     0.59752   0.15006   0.01026   0.00000  Uiso   1.00
C69    C     0.63651   0.10819   0.07632   0.00000  Uiso   1.00
H70    H     0.46898   0.03961   0.75136   0.00000  Uiso   1.00
H71    H     0.19870   0.04696   0.58322   0.00000  Uiso   1.00
H72    H     0.63931   0.05464   0.73592   0.00000  Uiso   1.00
H73    H     0.56586   0.00256   0.92664   0.00000  Uiso   1.00
H74    H     0.90402   0.07826   0.40990   0.00000  Uiso   1.00
H75    H     0.83310   0.09444   0.73191   0.00000  Uiso   1.00
H76    H     0.67823   0.98462   0.13408   0.00000  Uiso   1.00
H77    H     0.50725   0.21794   0.85244   0.00000  Uiso   1.00
H78    H     0.23906   0.23508   0.68984   0.00000  Uiso   1.00
H79    H     0.67967   0.24275   0.84254   0.00000  Uiso   1.00
H80    H     0.60622   0.19068   0.03325   0.00000  Uiso   1.00
H81    H     0.93678   0.23094   0.49643   0.00000  Uiso   1.00
H82    H     0.86587   0.24712   0.81845   0.00000  Uiso   1.00
H83    H     0.71098   0.13731   0.22062   0.00000  Uiso   1.00
O84    O     0.74330   0.16266   0.34436   0.00000  Uiso   1.00
O85    O     0.96224   0.18388   0.76685   0.00000  Uiso   1.00
O86    O     0.75903   0.03981   0.29448   0.00000  Uiso   1.00
N87    N     0.94853   0.11184   0.45259   0.00000  Uiso   1.00
N88    N     0.81715   0.12697   0.75364   0.00000  Uiso   1.00
N89    N     0.67239   0.02430   0.12964   0.00000  Uiso   1.00
N90    N     0.96616   0.19399   0.49915   0.00000  Uiso   1.00
N91    N     0.83478   0.20912   0.80020   0.00000  Uiso   1.00
N92    N     0.69002   0.10646   0.17621   0.00000  Uiso   1.00
C93    C     0.66531   0.93333   0.74398   0.00000  Uiso   1.00
C94    C     0.67554   0.90772   0.82481   0.00000  Uiso   1.00
C95    C     0.73293   0.93085   0.91828   0.00000  Uiso   1.00
C96    C     0.73243   0.90092   0.98157   0.00000  Uiso   1.00
C97    C     0.75689   0.86893   0.11155   0.00000  Uiso   1.00
C98    C     0.74034   0.89594   0.73260   0.00000  Uiso   1.00
C99    C     0.85219   0.90917   0.74852   0.00000  Uiso   1.00
C100   C     0.90622   0.86932   0.73416   0.00000  Uiso   1.00
C101   C     0.03121   0.81906   0.72091   0.00000  Uiso   1.00
C102   C     0.50950   0.93171   0.63763   0.00000  Uiso   1.00
C103   C     0.42727   0.97501   0.57369   0.00000  Uiso   1.00
C104   C     0.28695   0.96527   0.47936   0.00000  Uiso   1.00
C105   C     0.05353   0.97054   0.31866   0.00000  Uiso   1.00
C106   C     0.56235   0.83904   0.69013   0.00000  Uiso   1.00
C107   C     0.61962   0.85651   0.79556   0.00000  Uiso   1.00
C108   C     0.61902   0.82653   0.85871   0.00000  Uiso   1.00
C109   C     0.67640   0.84961   0.95227   0.00000  Uiso   1.00
C110   C     0.68442   0.84473   0.70335   0.00000  Uiso   1.00
C111   C     0.73829   0.80484   0.68895   0.00000  Uiso   1.00
C112   C     0.85020   0.81801   0.70486   0.00000  Uiso   1.00
C113   C     0.45358   0.88049   0.60838   0.00000  Uiso   1.00
C114   C     0.31336   0.87068   0.51413   0.00000  Uiso   1.00
C115   C     0.23093   0.91396   0.45006   0.00000  Uiso   1.00
H116   H     0.70885   0.97321   0.76674   0.00000  Uiso   1.00
H117   H     0.77621   0.97049   0.94090   0.00000  Uiso   1.00
H118   H     0.89544   0.94881   0.77115   0.00000  Uiso   1.00
H119   H     0.47058   0.01464   0.59635   0.00000  Uiso   1.00
H120   H     0.82628   0.94488   0.12110   0.00000  Uiso   1.00
H121   H     0.07765   0.89918   0.76314   0.00000  Uiso   1.00
H122   H     0.18175   0.03799   0.39454   0.00000  Uiso   1.00
H123   H     0.51882   0.79916   0.66736   0.00000  Uiso   1.00
H124   H     0.57574   0.78689   0.83606   0.00000  Uiso   1.00
H125   H     0.69498   0.76521   0.66632   0.00000  Uiso   1.00
H126   H     0.27012   0.83104   0.49152   0.00000  Uiso   1.00
H127   H     0.66358   0.79587   0.03601   0.00000  Uiso   1.00
H128   H     0.91495   0.75016   0.67805   0.00000  Uiso   1.00
H129   H     0.01905   0.88897   0.30945   0.00000  Uiso   1.00
O130   O     0.78585   0.86544   0.19134   0.00000  Uiso   1.00
O131   O     0.11562   0.80548   0.72170   0.00000  Uiso   1.00
O132   O     0.94023   0.98760   0.23811   0.00000  Uiso   1.00
N133   N     0.78015   0.91150   0.07791   0.00000  Uiso   1.00
N134   N     0.01518   0.86877   0.74326   0.00000  Uiso   1.00
N135   N     0.17760   0.99854   0.39863   0.00000  Uiso   1.00
N136   N     0.69260   0.83132   0.03213   0.00000  Uiso   1.00
N137   N     0.92763   0.78858   0.69747   0.00000  Uiso   1.00
N138   N     0.09005   0.91836   0.35285   0.00000  Uiso   1.00
C139   C     0.52226   0.58047   0.72548   0.00000  Uiso   1.00
C140   C     0.66380   0.60919   0.80282   0.00000  Uiso   1.00
C141   C     0.79263   0.58757   0.89378   0.00000  Uiso   1.00
C142   C     0.90995   0.62033   0.95404   0.00000  Uiso   1.00
C143   C     0.13143   0.65695   0.07867   0.00000  Uiso   1.00
C144   C     0.42442   0.61336   0.71986   0.00000  Uiso   1.00
C145   C     0.35196   0.59525   0.74107   0.00000  Uiso   1.00
C146   C     0.26775   0.63152   0.73148   0.00000  Uiso   1.00
C147   C     0.11751   0.67461   0.72725   0.00000  Uiso   1.00
C148   C     0.46434   0.58506   0.61625   0.00000  Uiso   1.00
C149   C     0.42541   0.54316   0.55032   0.00000  Uiso   1.00
C150   C     0.37478   0.55562   0.45347   0.00000  Uiso   1.00
C151   C     0.28652   0.55477   0.28837   0.00000  Uiso   1.00
C152   C     0.50152   0.67708   0.67072   0.00000  Uiso   1.00
C153   C     0.65253   0.66167   0.77307   0.00000  Uiso   1.00
C154   C     0.76969   0.69447   0.83320   0.00000  Uiso   1.00
C155   C     0.89867   0.67291   0.92424   0.00000  Uiso   1.00
C156   C     0.41316   0.66584   0.69012   0.00000  Uiso   1.00
C157   C     0.32902   0.70215   0.68049   0.00000  Uiso   1.00
C158   C     0.25647   0.68410   0.70168   0.00000  Uiso   1.00
C159   C     0.45308   0.63754   0.58650   0.00000  Uiso   1.00
C160   C     0.40248   0.65006   0.48974   0.00000  Uiso   1.00
C161   C     0.36349   0.60819   0.42368   0.00000  Uiso   1.00
H162   H     0.53102   0.53961   0.74864   0.00000  Uiso   1.00
H163   H     0.80130   0.54696   0.91678   0.00000  Uiso   1.00
H164   H     0.36069   0.55464   0.76408   0.00000  Uiso   1.00
H165   H     0.43414   0.50256   0.57336   0.00000  Uiso   1.00
H166   H     0.09598   0.57826   0.09010   0.00000  Uiso   1.00
H167   H     0.16690   0.59444   0.76809   0.00000  Uiso   1.00
H168   H     0.32177   0.48462   0.36592   0.00000  Uiso   1.00
H169   H     0.49275   0.71794   0.64756   0.00000  Uiso   1.00
H170   H     0.76094   0.73508   0.81016   0.00000  Uiso   1.00
H171   H     0.32033   0.74275   0.65746   0.00000  Uiso   1.00
H172   H     0.39378   0.69068   0.46675   0.00000  Uiso   1.00
H173   H     0.06322   0.73094   0.00357   0.00000  Uiso   1.00
H174   H     0.13413   0.74712   0.68155   0.00000  Uiso   1.00
H175   H     0.28902   0.63731   0.27938   0.00000  Uiso   1.00
O176   O     0.25670   0.66266   0.15564   0.00000  Uiso   1.00
O177   O     0.03776   0.68388   0.73315   0.00000  Uiso   1.00
O178   O     0.24097   0.53981   0.20552   0.00000  Uiso   1.00
N179   N     0.05147   0.61184   0.04741   0.00000  Uiso   1.00
N180   N     0.18285   0.62697   0.74636   0.00000  Uiso   1.00
N181   N     0.32761   0.52430   0.37036   0.00000  Uiso   1.00
N182   N     0.03384   0.69399   0.00085   0.00000  Uiso   1.00
N183   N     0.16522   0.70912   0.69980   0.00000  Uiso   1.00
N184   N     0.30998   0.60646   0.32379   0.00000  Uiso   1.00
C185   C     0.66531   0.56667   0.24398   0.00000  Uiso   1.00
C186   C     0.67554   0.59228   0.32481   0.00000  Uiso   1.00
C187   C     0.73293   0.56915   0.41828   0.00000  Uiso   1.00
C188   C     0.73243   0.59908   0.48157   0.00000  Uiso   1.00
C189   C     0.75689   0.63107   0.61155   0.00000  Uiso   1.00
C190   C     0.74034   0.60406   0.23260   0.00000  Uiso   1.00
C191   C     0.85219   0.59083   0.24852   0.00000  Uiso   1.00
C192   C     0.90622   0.63068   0.23416   0.00000  Uiso   1.00
C193   C     0.03121   0.68094   0.22091   0.00000  Uiso   1.00
C194   C     0.50950   0.56829   0.13763   0.00000  Uiso   1.00
C195   C     0.42727   0.52499   0.07369   0.00000  Uiso   1.00
C196   C     0.28695   0.53473   0.97936   0.00000  Uiso   1.00
C197   C     0.05353   0.52946   0.81866   0.00000  Uiso   1.00
C198   C     0.56235   0.66096   0.19013   0.00000  Uiso   1.00
C199   C     0.61962   0.64349   0.29556   0.00000  Uiso   1.00
C200   C     0.61902   0.67347   0.35871   0.00000  Uiso   1.00
C201   C     0.67640   0.65039   0.45227   0.00000  Uiso   1.00
C202   C     0.68442   0.65527   0.20335   0.00000  Uiso   1.00
C203   C     0.73829   0.69516   0.18895   0.00000  Uiso   1.00
C204   C     0.85020   0.68199   0.20486   0.00000  Uiso   1.00
C205   C     0.45358   0.61951   0.10838   0.00000  Uiso   1.00
C206   C     0.31336   0.62932   0.01413   0.00000  Uiso   1.00
C207   C     0.23093   0.58604   0.95006   0.00000  Uiso   1.00
H208   H     0.70885   0.52679   0.26674   0.00000  Uiso   1.00
H209   H     0.77621   0.52951   0.44090   0.00000  Uiso   1.00
H210   H     0.89544   0.55119   0.27115   0.00000  Uiso   1.00
H211   H     0.47058   0.48536   0.09635   0.00000  Uiso   1.00
H212   H     0.82628   0.55512   0.62110   0.00000  Uiso   1.00
H213   H     0.07765   0.60082   0.26314   0.00000  Uiso   1.00
H214   H     0.18175   0.46201   0.89454   0.00000  Uiso   1.00
H215   H     0.51882   0.70084   0.16736   0.00000  Uiso   1.00
H216   H     0.57574   0.71311   0.33606   0.00000  Uiso   1.00
H217   H     0.69498   0.73479   0.16632   0.00000  Uiso   1.00
H218   H     0.27012   0.66896   0.99152   0.00000  Uiso   1.00
H219   H     0.66358   0.70413   0.53601   0.00000  Uiso   1.00
H220   H     0.91495   0.74984   0.17805   0.00000  Uiso   1.00
H221   H     0.01905   0.61103   0.80945   0.00000  Uiso   1.00
O222   O     0.78585   0.63456   0.69134   0.00000  Uiso   1.00
O223   O     0.11562   0.69452   0.22170   0.00000  Uiso   1.00
O224   O     0.94023   0.51240   0.73811   0.00000  Uiso   1.00
N225   N     0.78015   0.58850   0.57791   0.00000  Uiso   1.00
N226   N     0.01518   0.63123   0.24326   0.00000  Uiso   1.00
N227   N     0.17760   0.50146   0.89863   0.00000  Uiso   1.00
N228   N     0.69260   0.66868   0.53213   0.00000  Uiso   1.00
N229   N     0.92763   0.71142   0.19747   0.00000  Uiso   1.00
N230   N     0.09005   0.58164   0.85285   0.00000  Uiso   1.00
C231   C     0.52226   0.91953   0.22548   0.00000  Uiso   1.00
C232   C     0.66380   0.89081   0.30282   0.00000  Uiso   1.00
C233   C     0.79263   0.91243   0.39378   0.00000  Uiso   1.00
C234   C     0.90995   0.87967   0.45404   0.00000  Uiso   1.00
C235   C     0.13143   0.84305   0.57867   0.00000  Uiso   1.00
C236   C     0.42442   0.88664   0.21986   0.00000  Uiso   1.00
C237   C     0.35196   0.90475   0.24107   0.00000  Uiso   1.00
C238   C     0.26775   0.86848   0.23148   0.00000  Uiso   1.00
C239   C     0.11751   0.82539   0.22725   0.00000  Uiso   1.00
C240   C     0.46434   0.91494   0.11625   0.00000  Uiso   1.00
C241   C     0.42541   0.95684   0.05032   0.00000  Uiso   1.00
C242   C     0.37478   0.94438   0.95347   0.00000  Uiso   1.00
C243   C     0.28652   0.94523   0.78837   0.00000  Uiso   1.00
C244   C     0.50152   0.82292   0.17072   0.00000  Uiso   1.00
C245   C     0.65253   0.83833   0.27307   0.00000  Uiso   1.00
C246   C     0.76969   0.80553   0.33320   0.00000  Uiso   1.00
C247   C     0.89867   0.82709   0.42424   0.00000  Uiso   1.00
C248   C     0.41316   0.83416   0.19012   0.00000  Uiso   1.00
C249   C     0.32902   0.79785   0.18049   0.00000  Uiso   1.00
C250   C     0.25647   0.81590   0.20168   0.00000  Uiso   1.00
C251   C     0.45308   0.86246   0.08650   0.00000  Uiso   1.00
C252   C     0.40248   0.84994   0.98974   0.00000  Uiso   1.00
C253   C     0.36349   0.89181   0.92368   0.00000  Uiso   1.00
H254   H     0.53102   0.96039   0.24864   0.00000  Uiso   1.00
H255   H     0.80130   0.95304   0.41678   0.00000  Uiso   1.00
H256   H     0.36069   0.94536   0.26408   0.00000  Uiso   1.00
H257   H     0.43414   0.99744   0.07336   0.00000  Uiso   1.00
H258   H     0.09598   0.92174   0.59010   0.00000  Uiso   1.00
H259   H     0.16690   0.90556   0.26809   0.00000  Uiso   1.00
H260   H     0.32177   0.01538   0.86592   0.00000  Uiso   1.00
H261   H     0.49275   0.78206   0.14756   0.00000  Uiso   1.00
H262   H     0.76094   0.76492   0.31016   0.00000  Uiso   1.00
H263   H     0.32033   0.75725   0.15746   0.00000  Uiso   1.00
H264   H     0.39378   0.80932   0.96675   0.00000  Uiso   1.00
H265   H     0.06322   0.76906   0.50357   0.00000  Uiso   1.00
H266   H     0.13413   0.75288   0.18155   0.00000  Uiso   1.00
H267   H     0.28902   0.86269   0.77938   0.00000  Uiso   1.00
O268   O     0.25670   0.83734   0.65564   0.00000  Uiso   1.00
O269   O     0.03776   0.81612   0.23315   0.00000  Uiso   1.00
O270   O     0.24097   0.96019   0.70552   0.00000  Uiso   1.00
N271   N     0.05147   0.88816   0.54741   0.00000  Uiso   1.00
N272   N     0.18285   0.87303   0.24636   0.00000  Uiso   1.00
N273   N     0.32761   0.97570   0.87036   0.00000  Uiso   1.00
N274   N     0.03384   0.80601   0.50085   0.00000  Uiso   1.00
N275   N     0.16522   0.79088   0.19980   0.00000  Uiso   1.00
N276   N     0.30998   0.89354   0.82379   0.00000  Uiso   1.00
C277   C     0.33469   0.06667   0.25602   0.00000  Uiso   1.00
C278   C     0.32446   0.09228   0.17519   0.00000  Uiso   1.00
C279   C     0.26707   0.06915   0.08172   0.00000  Uiso   1.00
C280   C     0.26757   0.09908   0.01843   0.00000  Uiso   1.00
C281   C     0.24311   0.13107   0.88845   0.00000  Uiso   1.00
C282   C     0.25966   0.10406   0.26740   0.00000  Uiso   1.00
C283   C     0.14781   0.09083   0.25148   0.00000  Uiso   1.00
C284   C     0.09378   0.13068   0.26584   0.00000  Uiso   1.00
C285   C     0.96879   0.18094   0.27909   0.00000  Uiso   1.00
C286   C     0.49050   0.06829   0.36237   0.00000  Uiso   1.00
C287   C     0.57273   0.02499   0.42631   0.00000  Uiso   1.00
C288   C     0.71305   0.03473   0.52064   0.00000  Uiso   1.00
C289   C     0.94647   0.02946   0.68134   0.00000  Uiso   1.00
C290   C     0.43765   0.16096   0.30987   0.00000  Uiso   1.00
C291   C     0.38038   0.14349   0.20444   0.00000  Uiso   1.00
C292   C     0.38098   0.17347   0.14129   0.00000  Uiso   1.00
C293   C     0.32360   0.15039   0.04773   0.00000  Uiso   1.00
C294   C     0.31558   0.15527   0.29665   0.00000  Uiso   1.00
C295   C     0.26171   0.19516   0.31105   0.00000  Uiso   1.00
C296   C     0.14980   0.18199   0.29514   0.00000  Uiso   1.00
C297   C     0.54642   0.11951   0.39162   0.00000  Uiso   1.00
C298   C     0.68664   0.12932   0.48587   0.00000  Uiso   1.00
C299   C     0.76907   0.08604   0.54994   0.00000  Uiso   1.00
H300   H     0.29115   0.02679   0.23326   0.00000  Uiso   1.00
H301   H     0.22379   0.02951   0.05910   0.00000  Uiso   1.00
H302   H     0.10456   0.05119   0.22885   0.00000  Uiso   1.00
H303   H     0.52942   0.98536   0.40365   0.00000  Uiso   1.00
H304   H     0.17372   0.05512   0.87890   0.00000  Uiso   1.00
H305   H     0.92235   0.10082   0.23686   0.00000  Uiso   1.00
H306   H     0.81825   0.96201   0.60546   0.00000  Uiso   1.00
H307   H     0.48118   0.20084   0.33264   0.00000  Uiso   1.00
H308   H     0.42426   0.21311   0.16394   0.00000  Uiso   1.00
H309   H     0.30502   0.23479   0.33368   0.00000  Uiso   1.00
H310   H     0.72988   0.16896   0.50848   0.00000  Uiso   1.00
H311   H     0.33642   0.20413   0.96399   0.00000  Uiso   1.00
H312   H     0.08505   0.24984   0.32195   0.00000  Uiso   1.00
H313   H     0.98095   0.11103   0.69055   0.00000  Uiso   1.00
O314   O     0.21415   0.13456   0.80866   0.00000  Uiso   1.00
O315   O     0.88438   0.19452   0.27830   0.00000  Uiso   1.00
O316   O     0.05977   0.01240   0.76189   0.00000  Uiso   1.00
N317   N     0.21985   0.08850   0.92209   0.00000  Uiso   1.00
N318   N     0.98482   0.13123   0.25674   0.00000  Uiso   1.00
N319   N     0.82240   0.00146   0.60137   0.00000  Uiso   1.00
N320   N     0.30740   0.16868   0.96787   0.00000  Uiso   1.00
N321   N     0.07237   0.21142   0.30253   0.00000  Uiso   1.00
N322   N     0.90995   0.08164   0.64715   0.00000  Uiso   1.00
C323   C     0.47774   0.41953   0.27452   0.00000  Uiso   1.00
C324   C     0.33620   0.39081   0.19718   0.00000  Uiso   1.00
C325   C     0.20737   0.41243   0.10622   0.00000  Uiso   1.00
C326   C     0.09005   0.37967   0.04596   0.00000  Uiso   1.00
C327   C     0.86857   0.34305   0.92133   0.00000  Uiso   1.00
C328   C     0.57558   0.38664   0.28014   0.00000  Uiso   1.00
C329   C     0.64804   0.40475   0.25893   0.00000  Uiso   1.00
C330   C     0.73225   0.36848   0.26852   0.00000  Uiso   1.00
C331   C     0.88249   0.32539   0.27275   0.00000  Uiso   1.00
C332   C     0.53566   0.41494   0.38375   0.00000  Uiso   1.00
C333   C     0.57459   0.45684   0.44968   0.00000  Uiso   1.00
C334   C     0.62522   0.44438   0.54653   0.00000  Uiso   1.00
C335   C     0.71348   0.44523   0.71163   0.00000  Uiso   1.00
C336   C     0.49848   0.32292   0.32928   0.00000  Uiso   1.00
C337   C     0.34747   0.33833   0.22693   0.00000  Uiso   1.00
C338   C     0.23031   0.30553   0.16680   0.00000  Uiso   1.00
C339   C     0.10133   0.32709   0.07576   0.00000  Uiso   1.00
C340   C     0.58684   0.33416   0.30988   0.00000  Uiso   1.00
C341   C     0.67097   0.29785   0.31951   0.00000  Uiso   1.00
C342   C     0.74353   0.31590   0.29832   0.00000  Uiso   1.00
C343   C     0.54692   0.36246   0.41350   0.00000  Uiso   1.00
C344   C     0.59752   0.34994   0.51026   0.00000  Uiso   1.00
C345   C     0.63651   0.39181   0.57632   0.00000  Uiso   1.00
H346   H     0.46898   0.46039   0.25136   0.00000  Uiso   1.00
H347   H     0.19870   0.45304   0.08322   0.00000  Uiso   1.00
H348   H     0.63931   0.44536   0.23592   0.00000  Uiso   1.00
H349   H     0.56586   0.49744   0.42664   0.00000  Uiso   1.00
H350   H     0.90402   0.42174   0.90990   0.00000  Uiso   1.00
H351   H     0.83310   0.40556   0.23191   0.00000  Uiso   1.00
H352   H     0.67823   0.51538   0.63408   0.00000  Uiso   1.00
H353   H     0.50725   0.28206   0.35244   0.00000  Uiso   1.00
H354   H     0.23906   0.26492   0.18984   0.00000  Uiso   1.00
H355   H     0.67967   0.25725   0.34254   0.00000  Uiso   1.00
H356   H     0.60622   0.30932   0.53325   0.00000  Uiso   1.00
H357   H     0.93678   0.26906   0.99643   0.00000  Uiso   1.00
H358   H     0.86587   0.25288   0.31845   0.00000  Uiso   1.00
H359   H     0.71098   0.36269   0.72062   0.00000  Uiso   1.00
O360   O     0.74330   0.33734   0.84436   0.00000  Uiso   1.00
O361   O     0.96224   0.31612   0.26685   0.00000  Uiso   1.00
O362   O     0.75903   0.46019   0.79448   0.00000  Uiso   1.00
N363   N     0.94853   0.38816   0.95259   0.00000  Uiso   1.00
N364   N     0.81715   0.37303   0.25364   0.00000  Uiso   1.00
N365   N     0.67239   0.47570   0.62964   0.00000  Uiso   1.00
N366   N     0.96616   0.30601   0.99915   0.00000  Uiso   1.00
N367   N     0.83478   0.29088   0.30020   0.00000  Uiso   1.00
N368   N     0.69002   0.39354   0.67621   0.00000  Uiso   1.00
