data_job_04924
_audit_creation_date              2018-12-19
_audit_creation_method            'Materials Studio'
_symmetry_space_group_name_H-M    'P1'
_symmetry_Int_Tables_number       1
_symmetry_cell_setting            triclinic
loop_
_symmetry_equiv_pos_as_xyz
  x,y,z
_cell_length_a                    13.3545
_cell_length_b                    35.5805
_cell_length_c                    12.5132
_cell_angle_alpha                 90.0000
_cell_angle_beta                  73.8454
_cell_angle_gamma                 90.0000
loop_
_atom_site_label
_atom_site_type_symbol
_atom_site_fract_x
_atom_site_fract_y
_atom_site_fract_z
_atom_site_U_iso_or_equiv
_atom_site_adp_type
_atom_site_occupancy
C1     C     0.42174   0.14296   0.53634   0.00000  Uiso   1.00
C2     C     0.35771   0.15003   0.65604   0.00000  Uiso   1.00
C3     C     0.35509   0.18331   0.71457   0.00000  Uiso   1.00
C4     C     0.29160   0.18413   0.82325   0.00000  Uiso   1.00
C5     C     0.20115   0.19988   0.00179   0.00000  Uiso   1.00
C6     C     0.48916   0.10866   0.54010   0.00000  Uiso   1.00
C7     C     0.59707   0.10717   0.50112   0.00000  Uiso   1.00
C8     C     0.64424   0.07317   0.51219   0.00000  Uiso   1.00
C9     C     0.75787   0.02469   0.51065   0.00000  Uiso   1.00
C10    C     0.34427   0.13062   0.47382   0.00000  Uiso   1.00
C11    C     0.33036   0.14758   0.37910   0.00000  Uiso   1.00
C12    C     0.25555   0.13206   0.33435   0.00000  Uiso   1.00
C13    C     0.14421   0.11766   0.22991   0.00000  Uiso   1.00
C14    C     0.31364   0.08523   0.62528   0.00000  Uiso   1.00
C15    C     0.29900   0.11867   0.70435   0.00000  Uiso   1.00
C16    C     0.23549   0.11944   0.81297   0.00000  Uiso   1.00
C17    C     0.23278   0.15272   0.87164   0.00000  Uiso   1.00
C18    C     0.43045   0.07731   0.58840   0.00000  Uiso   1.00
C19    C     0.47747   0.04330   0.59952   0.00000  Uiso   1.00
C20    C     0.58542   0.04176   0.56058   0.00000  Uiso   1.00
C21    C     0.28555   0.09926   0.52213   0.00000  Uiso   1.00
C22    C     0.21075   0.08371   0.47751   0.00000  Uiso   1.00
C23    C     0.19673   0.10065   0.38275   0.00000  Uiso   1.00
H24    H     0.46746   0.16737   0.49872   0.00000  Uiso   1.00
H25    H     0.40055   0.20757   0.67715   0.00000  Uiso   1.00
H26    H     0.64249   0.13144   0.46373   0.00000  Uiso   1.00
H27    H     0.37581   0.17184   0.34174   0.00000  Uiso   1.00
H28    H     0.30051   0.23831   0.89629   0.00000  Uiso   1.00
H29    H     0.81064   0.07779   0.44625   0.00000  Uiso   1.00
H30    H     0.24831   0.16298   0.18900   0.00000  Uiso   1.00
H31    H     0.26793   0.06081   0.66289   0.00000  Uiso   1.00
H32    H     0.19006   0.09517   0.85033   0.00000  Uiso   1.00
H33    H     0.43201   0.01904   0.63691   0.00000  Uiso   1.00
H34    H     0.16533   0.05945   0.51492   0.00000  Uiso   1.00
H35    H     0.12967   0.14708   0.03686   0.00000  Uiso   1.00
H36    H     0.63981   0.98656   0.58680   0.00000  Uiso   1.00
H37    H     0.07747   0.07175   0.32956   0.00000  Uiso   1.00
O38    O     0.16750   0.21722   0.08693   0.00000  Uiso   1.00
O39    O     0.83677   0.00661   0.49646   0.00000  Uiso   1.00
O40    O     0.09900   0.11839   0.15897   0.00000  Uiso   1.00
N41    N     0.27097   0.21213   0.90364   0.00000  Uiso   1.00
N42    N     0.74792   0.06205   0.48289   0.00000  Uiso   1.00
N43    N     0.22220   0.14169   0.24237   0.00000  Uiso   1.00
N44    N     0.17904   0.16304   0.97928   0.00000  Uiso   1.00
N45    N     0.65599   0.01296   0.55853   0.00000  Uiso   1.00
N46    N     0.13028   0.09260   0.31801   0.00000  Uiso   1.00
C47    C     0.92174   0.64296   0.53634   0.00000  Uiso   1.00
C48    C     0.85771   0.65003   0.65604   0.00000  Uiso   1.00
C49    C     0.85509   0.68331   0.71457   0.00000  Uiso   1.00
C50    C     0.79160   0.68413   0.82325   0.00000  Uiso   1.00
C51    C     0.70115   0.69988   0.00179   0.00000  Uiso   1.00
C52    C     0.98916   0.60866   0.54010   0.00000  Uiso   1.00
C53    C     0.09707   0.60717   0.50112   0.00000  Uiso   1.00
C54    C     0.14424   0.57317   0.51219   0.00000  Uiso   1.00
C55    C     0.25787   0.52469   0.51065   0.00000  Uiso   1.00
C56    C     0.84427   0.63062   0.47382   0.00000  Uiso   1.00
C57    C     0.83036   0.64758   0.37910   0.00000  Uiso   1.00
C58    C     0.75555   0.63206   0.33435   0.00000  Uiso   1.00
C59    C     0.64421   0.61766   0.22991   0.00000  Uiso   1.00
C60    C     0.81364   0.58523   0.62528   0.00000  Uiso   1.00
C61    C     0.79900   0.61867   0.70435   0.00000  Uiso   1.00
C62    C     0.73549   0.61944   0.81297   0.00000  Uiso   1.00
C63    C     0.73278   0.65272   0.87164   0.00000  Uiso   1.00
C64    C     0.93045   0.57731   0.58840   0.00000  Uiso   1.00
C65    C     0.97747   0.54330   0.59952   0.00000  Uiso   1.00
C66    C     0.08542   0.54176   0.56058   0.00000  Uiso   1.00
C67    C     0.78555   0.59926   0.52213   0.00000  Uiso   1.00
C68    C     0.71075   0.58371   0.47751   0.00000  Uiso   1.00
C69    C     0.69673   0.60065   0.38275   0.00000  Uiso   1.00
H70    H     0.96746   0.66737   0.49872   0.00000  Uiso   1.00
H71    H     0.90055   0.70757   0.67715   0.00000  Uiso   1.00
H72    H     0.14249   0.63144   0.46373   0.00000  Uiso   1.00
H73    H     0.87581   0.67184   0.34174   0.00000  Uiso   1.00
H74    H     0.80051   0.73831   0.89629   0.00000  Uiso   1.00
H75    H     0.31064   0.57779   0.44625   0.00000  Uiso   1.00
H76    H     0.74831   0.66298   0.18900   0.00000  Uiso   1.00
H77    H     0.76793   0.56081   0.66289   0.00000  Uiso   1.00
H78    H     0.69006   0.59517   0.85033   0.00000  Uiso   1.00
H79    H     0.93201   0.51904   0.63691   0.00000  Uiso   1.00
H80    H     0.66533   0.55945   0.51492   0.00000  Uiso   1.00
H81    H     0.62967   0.64708   0.03686   0.00000  Uiso   1.00
H82    H     0.13981   0.48656   0.58680   0.00000  Uiso   1.00
H83    H     0.57747   0.57175   0.32956   0.00000  Uiso   1.00
O84    O     0.66750   0.71722   0.08693   0.00000  Uiso   1.00
O85    O     0.33677   0.50661   0.49646   0.00000  Uiso   1.00
O86    O     0.59900   0.61839   0.15897   0.00000  Uiso   1.00
N87    N     0.77097   0.71213   0.90364   0.00000  Uiso   1.00
N88    N     0.24792   0.56205   0.48289   0.00000  Uiso   1.00
N89    N     0.72220   0.64169   0.24237   0.00000  Uiso   1.00
N90    N     0.67904   0.66304   0.97928   0.00000  Uiso   1.00
N91    N     0.15599   0.51296   0.55853   0.00000  Uiso   1.00
N92    N     0.63028   0.59260   0.31801   0.00000  Uiso   1.00
C93    C     0.57826   0.14296   0.96366   0.00000  Uiso   1.00
C94    C     0.64229   0.15003   0.84396   0.00000  Uiso   1.00
C95    C     0.64491   0.18331   0.78543   0.00000  Uiso   1.00
C96    C     0.70840   0.18413   0.67675   0.00000  Uiso   1.00
C97    C     0.79885   0.19988   0.49821   0.00000  Uiso   1.00
C98    C     0.51084   0.10866   0.95990   0.00000  Uiso   1.00
C99    C     0.40293   0.10717   0.99888   0.00000  Uiso   1.00
C100   C     0.35576   0.07317   0.98781   0.00000  Uiso   1.00
C101   C     0.24213   0.02469   0.98935   0.00000  Uiso   1.00
C102   C     0.65573   0.13062   0.02618   0.00000  Uiso   1.00
C103   C     0.66964   0.14758   0.12090   0.00000  Uiso   1.00
C104   C     0.74445   0.13206   0.16565   0.00000  Uiso   1.00
C105   C     0.85579   0.11766   0.27009   0.00000  Uiso   1.00
C106   C     0.68636   0.08523   0.87472   0.00000  Uiso   1.00
C107   C     0.70100   0.11867   0.79565   0.00000  Uiso   1.00
C108   C     0.76451   0.11944   0.68703   0.00000  Uiso   1.00
C109   C     0.76722   0.15272   0.62836   0.00000  Uiso   1.00
C110   C     0.56955   0.07731   0.91160   0.00000  Uiso   1.00
C111   C     0.52253   0.04330   0.90048   0.00000  Uiso   1.00
C112   C     0.41458   0.04176   0.93942   0.00000  Uiso   1.00
C113   C     0.71445   0.09926   0.97787   0.00000  Uiso   1.00
C114   C     0.78925   0.08371   0.02249   0.00000  Uiso   1.00
C115   C     0.80327   0.10065   0.11725   0.00000  Uiso   1.00
H116   H     0.53254   0.16737   0.00128   0.00000  Uiso   1.00
H117   H     0.59945   0.20757   0.82285   0.00000  Uiso   1.00
H118   H     0.35751   0.13144   0.03627   0.00000  Uiso   1.00
H119   H     0.62419   0.17184   0.15826   0.00000  Uiso   1.00
H120   H     0.69949   0.23831   0.60371   0.00000  Uiso   1.00
H121   H     0.18936   0.07779   0.05375   0.00000  Uiso   1.00
H122   H     0.75169   0.16298   0.31100   0.00000  Uiso   1.00
H123   H     0.73207   0.06081   0.83711   0.00000  Uiso   1.00
H124   H     0.80994   0.09517   0.64967   0.00000  Uiso   1.00
H125   H     0.56799   0.01904   0.86309   0.00000  Uiso   1.00
H126   H     0.83467   0.05945   0.98508   0.00000  Uiso   1.00
H127   H     0.87033   0.14708   0.46314   0.00000  Uiso   1.00
H128   H     0.36019   0.98656   0.91320   0.00000  Uiso   1.00
H129   H     0.92253   0.07175   0.17044   0.00000  Uiso   1.00
O130   O     0.83250   0.21722   0.41307   0.00000  Uiso   1.00
O131   O     0.16323   0.00661   0.00354   0.00000  Uiso   1.00
O132   O     0.90100   0.11839   0.34103   0.00000  Uiso   1.00
N133   N     0.72903   0.21213   0.59636   0.00000  Uiso   1.00
N134   N     0.25208   0.06205   0.01711   0.00000  Uiso   1.00
N135   N     0.77780   0.14169   0.25763   0.00000  Uiso   1.00
N136   N     0.82096   0.16304   0.52072   0.00000  Uiso   1.00
N137   N     0.34401   0.01296   0.94147   0.00000  Uiso   1.00
N138   N     0.86972   0.09260   0.18199   0.00000  Uiso   1.00
C139   C     0.07826   0.64296   0.96366   0.00000  Uiso   1.00
C140   C     0.14229   0.65003   0.84396   0.00000  Uiso   1.00
C141   C     0.14491   0.68331   0.78543   0.00000  Uiso   1.00
C142   C     0.20840   0.68413   0.67675   0.00000  Uiso   1.00
C143   C     0.29885   0.69988   0.49821   0.00000  Uiso   1.00
C144   C     0.01084   0.60866   0.95990   0.00000  Uiso   1.00
C145   C     0.90293   0.60717   0.99888   0.00000  Uiso   1.00
C146   C     0.85576   0.57317   0.98781   0.00000  Uiso   1.00
C147   C     0.74213   0.52469   0.98935   0.00000  Uiso   1.00
C148   C     0.15573   0.63062   0.02618   0.00000  Uiso   1.00
C149   C     0.16964   0.64758   0.12090   0.00000  Uiso   1.00
C150   C     0.24445   0.63206   0.16565   0.00000  Uiso   1.00
C151   C     0.35579   0.61766   0.27009   0.00000  Uiso   1.00
C152   C     0.18636   0.58523   0.87472   0.00000  Uiso   1.00
C153   C     0.20100   0.61867   0.79565   0.00000  Uiso   1.00
C154   C     0.26451   0.61944   0.68703   0.00000  Uiso   1.00
C155   C     0.26722   0.65272   0.62836   0.00000  Uiso   1.00
C156   C     0.06955   0.57731   0.91160   0.00000  Uiso   1.00
C157   C     0.02253   0.54330   0.90048   0.00000  Uiso   1.00
C158   C     0.91458   0.54176   0.93942   0.00000  Uiso   1.00
C159   C     0.21445   0.59926   0.97787   0.00000  Uiso   1.00
C160   C     0.28925   0.58371   0.02249   0.00000  Uiso   1.00
C161   C     0.30327   0.60065   0.11725   0.00000  Uiso   1.00
H162   H     0.03254   0.66737   0.00128   0.00000  Uiso   1.00
H163   H     0.09945   0.70757   0.82285   0.00000  Uiso   1.00
H164   H     0.85751   0.63144   0.03627   0.00000  Uiso   1.00
H165   H     0.12419   0.67184   0.15826   0.00000  Uiso   1.00
H166   H     0.19949   0.73831   0.60371   0.00000  Uiso   1.00
H167   H     0.68936   0.57779   0.05375   0.00000  Uiso   1.00
H168   H     0.25169   0.66298   0.31100   0.00000  Uiso   1.00
H169   H     0.23207   0.56081   0.83711   0.00000  Uiso   1.00
H170   H     0.30994   0.59517   0.64967   0.00000  Uiso   1.00
H171   H     0.06799   0.51904   0.86309   0.00000  Uiso   1.00
H172   H     0.33467   0.55945   0.98508   0.00000  Uiso   1.00
H173   H     0.37033   0.64708   0.46314   0.00000  Uiso   1.00
H174   H     0.86019   0.48656   0.91320   0.00000  Uiso   1.00
H175   H     0.42253   0.57175   0.17044   0.00000  Uiso   1.00
O176   O     0.33250   0.71722   0.41307   0.00000  Uiso   1.00
O177   O     0.66323   0.50661   0.00354   0.00000  Uiso   1.00
O178   O     0.40100   0.61839   0.34103   0.00000  Uiso   1.00
N179   N     0.22903   0.71213   0.59636   0.00000  Uiso   1.00
N180   N     0.75208   0.56205   0.01711   0.00000  Uiso   1.00
N181   N     0.27780   0.64169   0.25763   0.00000  Uiso   1.00
N182   N     0.32096   0.66304   0.52072   0.00000  Uiso   1.00
N183   N     0.84401   0.51296   0.94147   0.00000  Uiso   1.00
N184   N     0.36972   0.59260   0.18199   0.00000  Uiso   1.00
C185   C     0.57826   0.85704   0.46366   0.00000  Uiso   1.00
C186   C     0.64229   0.84997   0.34396   0.00000  Uiso   1.00
C187   C     0.64491   0.81669   0.28543   0.00000  Uiso   1.00
C188   C     0.70840   0.81587   0.17675   0.00000  Uiso   1.00
C189   C     0.79885   0.80012   0.99821   0.00000  Uiso   1.00
C190   C     0.51084   0.89134   0.45990   0.00000  Uiso   1.00
C191   C     0.40293   0.89283   0.49888   0.00000  Uiso   1.00
C192   C     0.35576   0.92683   0.48781   0.00000  Uiso   1.00
C193   C     0.24213   0.97531   0.48935   0.00000  Uiso   1.00
C194   C     0.65573   0.86938   0.52618   0.00000  Uiso   1.00
C195   C     0.66964   0.85242   0.62090   0.00000  Uiso   1.00
C196   C     0.74445   0.86794   0.66565   0.00000  Uiso   1.00
C197   C     0.85579   0.88234   0.77009   0.00000  Uiso   1.00
C198   C     0.68636   0.91477   0.37472   0.00000  Uiso   1.00
C199   C     0.70100   0.88133   0.29565   0.00000  Uiso   1.00
C200   C     0.76451   0.88056   0.18703   0.00000  Uiso   1.00
C201   C     0.76722   0.84728   0.12836   0.00000  Uiso   1.00
C202   C     0.56955   0.92269   0.41160   0.00000  Uiso   1.00
C203   C     0.52253   0.95670   0.40048   0.00000  Uiso   1.00
C204   C     0.41458   0.95824   0.43942   0.00000  Uiso   1.00
C205   C     0.71445   0.90074   0.47787   0.00000  Uiso   1.00
C206   C     0.78925   0.91629   0.52249   0.00000  Uiso   1.00
C207   C     0.80327   0.89935   0.61725   0.00000  Uiso   1.00
H208   H     0.53254   0.83263   0.50128   0.00000  Uiso   1.00
H209   H     0.59945   0.79243   0.32285   0.00000  Uiso   1.00
H210   H     0.35751   0.86856   0.53627   0.00000  Uiso   1.00
H211   H     0.62419   0.82816   0.65826   0.00000  Uiso   1.00
H212   H     0.69949   0.76169   0.10371   0.00000  Uiso   1.00
H213   H     0.18936   0.92221   0.55375   0.00000  Uiso   1.00
H214   H     0.75169   0.83702   0.81100   0.00000  Uiso   1.00
H215   H     0.73207   0.93919   0.33711   0.00000  Uiso   1.00
H216   H     0.80994   0.90483   0.14967   0.00000  Uiso   1.00
H217   H     0.56799   0.98096   0.36309   0.00000  Uiso   1.00
H218   H     0.83467   0.94055   0.48508   0.00000  Uiso   1.00
H219   H     0.87033   0.85292   0.96314   0.00000  Uiso   1.00
H220   H     0.36019   0.01344   0.41320   0.00000  Uiso   1.00
H221   H     0.92253   0.92825   0.67044   0.00000  Uiso   1.00
O222   O     0.83250   0.78278   0.91307   0.00000  Uiso   1.00
O223   O     0.16323   0.99339   0.50354   0.00000  Uiso   1.00
O224   O     0.90100   0.88161   0.84103   0.00000  Uiso   1.00
N225   N     0.72903   0.78787   0.09636   0.00000  Uiso   1.00
N226   N     0.25208   0.93795   0.51711   0.00000  Uiso   1.00
N227   N     0.77780   0.85831   0.75763   0.00000  Uiso   1.00
N228   N     0.82096   0.83696   0.02072   0.00000  Uiso   1.00
N229   N     0.34401   0.98704   0.44147   0.00000  Uiso   1.00
N230   N     0.86972   0.90740   0.68199   0.00000  Uiso   1.00
C231   C     0.07826   0.35704   0.46366   0.00000  Uiso   1.00
C232   C     0.14229   0.34997   0.34396   0.00000  Uiso   1.00
C233   C     0.14491   0.31669   0.28543   0.00000  Uiso   1.00
C234   C     0.20840   0.31587   0.17675   0.00000  Uiso   1.00
C235   C     0.29885   0.30012   0.99821   0.00000  Uiso   1.00
C236   C     0.01084   0.39134   0.45990   0.00000  Uiso   1.00
C237   C     0.90293   0.39283   0.49888   0.00000  Uiso   1.00
C238   C     0.85576   0.42683   0.48781   0.00000  Uiso   1.00
C239   C     0.74213   0.47531   0.48935   0.00000  Uiso   1.00
C240   C     0.15573   0.36938   0.52618   0.00000  Uiso   1.00
C241   C     0.16964   0.35242   0.62090   0.00000  Uiso   1.00
C242   C     0.24445   0.36794   0.66565   0.00000  Uiso   1.00
C243   C     0.35579   0.38234   0.77009   0.00000  Uiso   1.00
C244   C     0.18636   0.41477   0.37472   0.00000  Uiso   1.00
C245   C     0.20100   0.38133   0.29565   0.00000  Uiso   1.00
C246   C     0.26451   0.38056   0.18703   0.00000  Uiso   1.00
C247   C     0.26722   0.34728   0.12836   0.00000  Uiso   1.00
C248   C     0.06955   0.42269   0.41160   0.00000  Uiso   1.00
C249   C     0.02253   0.45670   0.40048   0.00000  Uiso   1.00
C250   C     0.91458   0.45824   0.43942   0.00000  Uiso   1.00
C251   C     0.21445   0.40074   0.47787   0.00000  Uiso   1.00
C252   C     0.28925   0.41629   0.52249   0.00000  Uiso   1.00
C253   C     0.30327   0.39935   0.61725   0.00000  Uiso   1.00
H254   H     0.03254   0.33263   0.50128   0.00000  Uiso   1.00
H255   H     0.09945   0.29243   0.32285   0.00000  Uiso   1.00
H256   H     0.85751   0.36856   0.53627   0.00000  Uiso   1.00
H257   H     0.12419   0.32816   0.65826   0.00000  Uiso   1.00
H258   H     0.19949   0.26169   0.10371   0.00000  Uiso   1.00
H259   H     0.68936   0.42221   0.55375   0.00000  Uiso   1.00
H260   H     0.25169   0.33702   0.81100   0.00000  Uiso   1.00
H261   H     0.23207   0.43919   0.33711   0.00000  Uiso   1.00
H262   H     0.30994   0.40483   0.14967   0.00000  Uiso   1.00
H263   H     0.06799   0.48096   0.36309   0.00000  Uiso   1.00
H264   H     0.33467   0.44055   0.48508   0.00000  Uiso   1.00
H265   H     0.37033   0.35292   0.96314   0.00000  Uiso   1.00
H266   H     0.86019   0.51344   0.41320   0.00000  Uiso   1.00
H267   H     0.42253   0.42825   0.67044   0.00000  Uiso   1.00
O268   O     0.33250   0.28278   0.91307   0.00000  Uiso   1.00
O269   O     0.66323   0.49339   0.50354   0.00000  Uiso   1.00
O270   O     0.40100   0.38161   0.84103   0.00000  Uiso   1.00
N271   N     0.22903   0.28787   0.09636   0.00000  Uiso   1.00
N272   N     0.75208   0.43795   0.51711   0.00000  Uiso   1.00
N273   N     0.27780   0.35831   0.75763   0.00000  Uiso   1.00
N274   N     0.32096   0.33696   0.02072   0.00000  Uiso   1.00
N275   N     0.84401   0.48704   0.44147   0.00000  Uiso   1.00
N276   N     0.36972   0.40740   0.68199   0.00000  Uiso   1.00
C277   C     0.42174   0.85704   0.03634   0.00000  Uiso   1.00
C278   C     0.35771   0.84997   0.15604   0.00000  Uiso   1.00
C279   C     0.35509   0.81669   0.21457   0.00000  Uiso   1.00
C280   C     0.29160   0.81587   0.32325   0.00000  Uiso   1.00
C281   C     0.20115   0.80012   0.50179   0.00000  Uiso   1.00
C282   C     0.48916   0.89134   0.04010   0.00000  Uiso   1.00
C283   C     0.59707   0.89283   0.00112   0.00000  Uiso   1.00
C284   C     0.64424   0.92683   0.01219   0.00000  Uiso   1.00
C285   C     0.75787   0.97531   0.01065   0.00000  Uiso   1.00
C286   C     0.34427   0.86938   0.97382   0.00000  Uiso   1.00
C287   C     0.33036   0.85242   0.87910   0.00000  Uiso   1.00
C288   C     0.25555   0.86794   0.83435   0.00000  Uiso   1.00
C289   C     0.14421   0.88234   0.72991   0.00000  Uiso   1.00
C290   C     0.31364   0.91477   0.12528   0.00000  Uiso   1.00
C291   C     0.29900   0.88133   0.20435   0.00000  Uiso   1.00
C292   C     0.23549   0.88056   0.31297   0.00000  Uiso   1.00
C293   C     0.23278   0.84728   0.37164   0.00000  Uiso   1.00
C294   C     0.43045   0.92269   0.08840   0.00000  Uiso   1.00
C295   C     0.47747   0.95670   0.09952   0.00000  Uiso   1.00
C296   C     0.58542   0.95824   0.06058   0.00000  Uiso   1.00
C297   C     0.28555   0.90074   0.02213   0.00000  Uiso   1.00
C298   C     0.21075   0.91629   0.97751   0.00000  Uiso   1.00
C299   C     0.19673   0.89935   0.88275   0.00000  Uiso   1.00
H300   H     0.46746   0.83263   0.99872   0.00000  Uiso   1.00
H301   H     0.40055   0.79243   0.17715   0.00000  Uiso   1.00
H302   H     0.64249   0.86856   0.96373   0.00000  Uiso   1.00
H303   H     0.37581   0.82816   0.84174   0.00000  Uiso   1.00
H304   H     0.30051   0.76169   0.39629   0.00000  Uiso   1.00
H305   H     0.81064   0.92221   0.94625   0.00000  Uiso   1.00
H306   H     0.24831   0.83702   0.68900   0.00000  Uiso   1.00
H307   H     0.26793   0.93919   0.16289   0.00000  Uiso   1.00
H308   H     0.19006   0.90483   0.35033   0.00000  Uiso   1.00
H309   H     0.43201   0.98096   0.13691   0.00000  Uiso   1.00
H310   H     0.16533   0.94055   0.01492   0.00000  Uiso   1.00
H311   H     0.12967   0.85292   0.53686   0.00000  Uiso   1.00
H312   H     0.63981   0.01344   0.08680   0.00000  Uiso   1.00
H313   H     0.07747   0.92825   0.82956   0.00000  Uiso   1.00
O314   O     0.16750   0.78278   0.58693   0.00000  Uiso   1.00
O315   O     0.83677   0.99339   0.99646   0.00000  Uiso   1.00
O316   O     0.09900   0.88161   0.65897   0.00000  Uiso   1.00
N317   N     0.27097   0.78787   0.40364   0.00000  Uiso   1.00
N318   N     0.74792   0.93795   0.98289   0.00000  Uiso   1.00
N319   N     0.22220   0.85831   0.74237   0.00000  Uiso   1.00
N320   N     0.17904   0.83696   0.47928   0.00000  Uiso   1.00
N321   N     0.65599   0.98704   0.05853   0.00000  Uiso   1.00
N322   N     0.13028   0.90740   0.81801   0.00000  Uiso   1.00
C323   C     0.92174   0.35704   0.03634   0.00000  Uiso   1.00
C324   C     0.85771   0.34997   0.15604   0.00000  Uiso   1.00
C325   C     0.85509   0.31669   0.21457   0.00000  Uiso   1.00
C326   C     0.79160   0.31587   0.32325   0.00000  Uiso   1.00
C327   C     0.70115   0.30012   0.50179   0.00000  Uiso   1.00
C328   C     0.98916   0.39134   0.04010   0.00000  Uiso   1.00
C329   C     0.09707   0.39283   0.00112   0.00000  Uiso   1.00
C330   C     0.14424   0.42683   0.01219   0.00000  Uiso   1.00
C331   C     0.25787   0.47531   0.01065   0.00000  Uiso   1.00
C332   C     0.84427   0.36938   0.97382   0.00000  Uiso   1.00
C333   C     0.83036   0.35242   0.87910   0.00000  Uiso   1.00
C334   C     0.75555   0.36794   0.83435   0.00000  Uiso   1.00
C335   C     0.64421   0.38234   0.72991   0.00000  Uiso   1.00
C336   C     0.81364   0.41477   0.12528   0.00000  Uiso   1.00
C337   C     0.79900   0.38133   0.20435   0.00000  Uiso   1.00
C338   C     0.73549   0.38056   0.31297   0.00000  Uiso   1.00
C339   C     0.73278   0.34728   0.37164   0.00000  Uiso   1.00
C340   C     0.93045   0.42269   0.08840   0.00000  Uiso   1.00
C341   C     0.97747   0.45670   0.09952   0.00000  Uiso   1.00
C342   C     0.08542   0.45824   0.06058   0.00000  Uiso   1.00
C343   C     0.78555   0.40074   0.02213   0.00000  Uiso   1.00
C344   C     0.71075   0.41629   0.97751   0.00000  Uiso   1.00
C345   C     0.69673   0.39935   0.88275   0.00000  Uiso   1.00
H346   H     0.96746   0.33263   0.99872   0.00000  Uiso   1.00
H347   H     0.90055   0.29243   0.17715   0.00000  Uiso   1.00
H348   H     0.14249   0.36856   0.96373   0.00000  Uiso   1.00
H349   H     0.87581   0.32816   0.84174   0.00000  Uiso   1.00
H350   H     0.80051   0.26169   0.39629   0.00000  Uiso   1.00
H351   H     0.31064   0.42221   0.94625   0.00000  Uiso   1.00
H352   H     0.74831   0.33702   0.68900   0.00000  Uiso   1.00
H353   H     0.76793   0.43919   0.16289   0.00000  Uiso   1.00
H354   H     0.69006   0.40483   0.35033   0.00000  Uiso   1.00
H355   H     0.93201   0.48096   0.13691   0.00000  Uiso   1.00
H356   H     0.66533   0.44055   0.01492   0.00000  Uiso   1.00
H357   H     0.62967   0.35292   0.53686   0.00000  Uiso   1.00
H358   H     0.13981   0.51344   0.08680   0.00000  Uiso   1.00
H359   H     0.57747   0.42825   0.82956   0.00000  Uiso   1.00
O360   O     0.66750   0.28278   0.58693   0.00000  Uiso   1.00
O361   O     0.33677   0.49339   0.99646   0.00000  Uiso   1.00
O362   O     0.59900   0.38161   0.65897   0.00000  Uiso   1.00
N363   N     0.77097   0.28787   0.40364   0.00000  Uiso   1.00
N364   N     0.24792   0.43795   0.98289   0.00000  Uiso   1.00
N365   N     0.72220   0.35831   0.74237   0.00000  Uiso   1.00
N366   N     0.67904   0.33696   0.47928   0.00000  Uiso   1.00
N367   N     0.15599   0.48704   0.05853   0.00000  Uiso   1.00
N368   N     0.63028   0.40740   0.81801   0.00000  Uiso   1.00
