data_job_01634
_audit_creation_date              2018-12-19
_audit_creation_method            'Materials Studio'
_symmetry_space_group_name_H-M    'P1'
_symmetry_Int_Tables_number       1
_symmetry_cell_setting            triclinic
loop_
_symmetry_equiv_pos_as_xyz
  x,y,z
_cell_length_a                    8.2497
_cell_length_b                    19.9248
_cell_length_c                    18.7130
_cell_angle_alpha                 90.0000
_cell_angle_beta                  123.1422
_cell_angle_gamma                 90.0000
loop_
_atom_site_label
_atom_site_type_symbol
_atom_site_fract_x
_atom_site_fract_y
_atom_site_fract_z
_atom_site_U_iso_or_equiv
_atom_site_adp_type
_atom_site_occupancy
C1     C     0.52852   0.82900   0.41702   0.00000  Uiso   1.00
C2     C     0.73811   0.85101   0.45724   0.00000  Uiso   1.00
C3     C     0.85341   0.88164   0.53625   0.00000  Uiso   1.00
C4     C     0.04127   0.89791   0.56163   0.00000  Uiso   1.00
C5     C     0.35605   0.93423   0.63193   0.00000  Uiso   1.00
C6     C     0.41256   0.86409   0.33066   0.00000  Uiso   1.00
C7     C     0.25413   0.90571   0.30325   0.00000  Uiso   1.00
C8     C     0.16793   0.93298   0.22206   0.00000  Uiso   1.00
C9     C     0.97721   0.98957   0.09583   0.00000  Uiso   1.00
C10    C     0.52300   0.75437   0.39776   0.00000  Uiso   1.00
C11    C     0.45738   0.70374   0.42675   0.00000  Uiso   1.00
C12    C     0.46412   0.63863   0.40204   0.00000  Uiso   1.00
C13    C     0.44486   0.52486   0.37999   0.00000  Uiso   1.00
C14    C     0.65710   0.80340   0.32157   0.00000  Uiso   1.00
C15    C     0.80794   0.83711   0.40539   0.00000  Uiso   1.00
C16    C     0.99568   0.85333   0.43065   0.00000  Uiso   1.00
C17    C     0.11124   0.88398   0.50969   0.00000  Uiso   1.00
C18    C     0.48240   0.85019   0.27881   0.00000  Uiso   1.00
C19    C     0.39640   0.87740   0.19764   0.00000  Uiso   1.00
C20    C     0.23789   0.91906   0.17012   0.00000  Uiso   1.00
C21    C     0.59284   0.74046   0.34591   0.00000  Uiso   1.00
C22    C     0.59966   0.67542   0.32114   0.00000  Uiso   1.00
C23    C     0.53408   0.62471   0.35009   0.00000  Uiso   1.00
H24    H     0.47414   0.83982   0.45738   0.00000  Uiso   1.00
H25    H     0.79931   0.89240   0.57636   0.00000  Uiso   1.00
H26    H     0.20011   0.91646   0.34338   0.00000  Uiso   1.00
H27    H     0.40335   0.71452   0.46687   0.00000  Uiso   1.00
H28    H     0.19059   0.94458   0.68538   0.00000  Uiso   1.00
H29    H     0.92712   0.99529   0.19413   0.00000  Uiso   1.00
H30    H     0.35566   0.56946   0.45452   0.00000  Uiso   1.00
H31    H     0.71147   0.79258   0.28120   0.00000  Uiso   1.00
H32    H     0.04968   0.84256   0.39051   0.00000  Uiso   1.00
H33    H     0.45048   0.86663   0.15753   0.00000  Uiso   1.00
H34    H     0.65371   0.66468   0.28102   0.00000  Uiso   1.00
H35    H     0.39380   0.90413   0.53454   0.00000  Uiso   1.00
H36    H     0.13032   0.95485   0.04329   0.00000  Uiso   1.00
H37    H     0.55887   0.52901   0.30368   0.00000  Uiso   1.00
O38    O     0.51038   0.95811   0.68503   0.00000  Uiso   1.00
O39    O     0.85272   0.02463   0.04053   0.00000  Uiso   1.00
O40    O     0.41498   0.46595   0.38216   0.00000  Uiso   1.00
N41    N     0.19202   0.92819   0.63489   0.00000  Uiso   1.00
N42    N     0.01076   0.97561   0.17560   0.00000  Uiso   1.00
N43    N     0.41137   0.57749   0.41903   0.00000  Uiso   1.00
N44    N     0.30136   0.90642   0.55372   0.00000  Uiso   1.00
N45    N     0.12011   0.95385   0.09444   0.00000  Uiso   1.00
N46    N     0.52071   0.55573   0.33786   0.00000  Uiso   1.00
C47    C     0.47148   0.32900   0.08298   0.00000  Uiso   1.00
C48    C     0.26189   0.35101   0.04276   0.00000  Uiso   1.00
C49    C     0.14659   0.38164   0.96375   0.00000  Uiso   1.00
C50    C     0.95873   0.39791   0.93837   0.00000  Uiso   1.00
C51    C     0.64395   0.43423   0.86807   0.00000  Uiso   1.00
C52    C     0.58744   0.36409   0.16934   0.00000  Uiso   1.00
C53    C     0.74587   0.40571   0.19675   0.00000  Uiso   1.00
C54    C     0.83207   0.43298   0.27794   0.00000  Uiso   1.00
C55    C     0.02279   0.48957   0.40417   0.00000  Uiso   1.00
C56    C     0.47700   0.25437   0.10224   0.00000  Uiso   1.00
C57    C     0.54262   0.20374   0.07325   0.00000  Uiso   1.00
C58    C     0.53588   0.13863   0.09796   0.00000  Uiso   1.00
C59    C     0.55514   0.02486   0.12001   0.00000  Uiso   1.00
C60    C     0.34290   0.30340   0.17843   0.00000  Uiso   1.00
C61    C     0.19206   0.33711   0.09461   0.00000  Uiso   1.00
C62    C     0.00432   0.35333   0.06935   0.00000  Uiso   1.00
C63    C     0.88876   0.38398   0.99031   0.00000  Uiso   1.00
C64    C     0.51760   0.35019   0.22119   0.00000  Uiso   1.00
C65    C     0.60360   0.37740   0.30236   0.00000  Uiso   1.00
C66    C     0.76211   0.41906   0.32988   0.00000  Uiso   1.00
C67    C     0.40716   0.24046   0.15409   0.00000  Uiso   1.00
C68    C     0.40034   0.17542   0.17886   0.00000  Uiso   1.00
C69    C     0.46592   0.12471   0.14991   0.00000  Uiso   1.00
H70    H     0.52586   0.33982   0.04262   0.00000  Uiso   1.00
H71    H     0.20069   0.39240   0.92364   0.00000  Uiso   1.00
H72    H     0.79989   0.41646   0.15662   0.00000  Uiso   1.00
H73    H     0.59665   0.21452   0.03313   0.00000  Uiso   1.00
H74    H     0.80941   0.44458   0.81462   0.00000  Uiso   1.00
H75    H     0.07288   0.49529   0.30587   0.00000  Uiso   1.00
H76    H     0.64434   0.06946   0.04548   0.00000  Uiso   1.00
H77    H     0.28853   0.29258   0.21880   0.00000  Uiso   1.00
H78    H     0.95032   0.34256   0.10949   0.00000  Uiso   1.00
H79    H     0.54952   0.36663   0.34247   0.00000  Uiso   1.00
H80    H     0.34629   0.16468   0.21898   0.00000  Uiso   1.00
H81    H     0.60620   0.40413   0.96546   0.00000  Uiso   1.00
H82    H     0.86968   0.45485   0.45671   0.00000  Uiso   1.00
H83    H     0.44113   0.02901   0.19632   0.00000  Uiso   1.00
O84    O     0.48962   0.45811   0.81497   0.00000  Uiso   1.00
O85    O     0.14728   0.52463   0.45947   0.00000  Uiso   1.00
O86    O     0.58502   0.96595   0.11784   0.00000  Uiso   1.00
N87    N     0.80798   0.42819   0.86511   0.00000  Uiso   1.00
N88    N     0.98924   0.47561   0.32440   0.00000  Uiso   1.00
N89    N     0.58863   0.07749   0.08097   0.00000  Uiso   1.00
N90    N     0.69864   0.40642   0.94628   0.00000  Uiso   1.00
N91    N     0.87989   0.45385   0.40556   0.00000  Uiso   1.00
N92    N     0.47929   0.05573   0.16214   0.00000  Uiso   1.00
C93    C     0.47148   0.17100   0.58298   0.00000  Uiso   1.00
C94    C     0.26189   0.14899   0.54276   0.00000  Uiso   1.00
C95    C     0.14659   0.11836   0.46375   0.00000  Uiso   1.00
C96    C     0.95873   0.10209   0.43837   0.00000  Uiso   1.00
C97    C     0.64395   0.06577   0.36807   0.00000  Uiso   1.00
C98    C     0.58744   0.13591   0.66934   0.00000  Uiso   1.00
C99    C     0.74587   0.09429   0.69675   0.00000  Uiso   1.00
C100   C     0.83207   0.06702   0.77794   0.00000  Uiso   1.00
C101   C     0.02279   0.01043   0.90417   0.00000  Uiso   1.00
C102   C     0.47700   0.24563   0.60224   0.00000  Uiso   1.00
C103   C     0.54262   0.29626   0.57325   0.00000  Uiso   1.00
C104   C     0.53588   0.36137   0.59796   0.00000  Uiso   1.00
C105   C     0.55514   0.47514   0.62001   0.00000  Uiso   1.00
C106   C     0.34290   0.19660   0.67843   0.00000  Uiso   1.00
C107   C     0.19206   0.16289   0.59461   0.00000  Uiso   1.00
C108   C     0.00432   0.14667   0.56935   0.00000  Uiso   1.00
C109   C     0.88876   0.11602   0.49031   0.00000  Uiso   1.00
C110   C     0.51760   0.14981   0.72119   0.00000  Uiso   1.00
C111   C     0.60360   0.12260   0.80236   0.00000  Uiso   1.00
C112   C     0.76211   0.08094   0.82988   0.00000  Uiso   1.00
C113   C     0.40716   0.25954   0.65409   0.00000  Uiso   1.00
C114   C     0.40034   0.32458   0.67886   0.00000  Uiso   1.00
C115   C     0.46592   0.37529   0.64991   0.00000  Uiso   1.00
H116   H     0.52586   0.16018   0.54262   0.00000  Uiso   1.00
H117   H     0.20069   0.10760   0.42364   0.00000  Uiso   1.00
H118   H     0.79989   0.08354   0.65662   0.00000  Uiso   1.00
H119   H     0.59665   0.28548   0.53313   0.00000  Uiso   1.00
H120   H     0.80941   0.05542   0.31462   0.00000  Uiso   1.00
H121   H     0.07288   0.00471   0.80587   0.00000  Uiso   1.00
H122   H     0.64434   0.43054   0.54548   0.00000  Uiso   1.00
H123   H     0.28853   0.20742   0.71880   0.00000  Uiso   1.00
H124   H     0.95032   0.15744   0.60949   0.00000  Uiso   1.00
H125   H     0.54952   0.13337   0.84247   0.00000  Uiso   1.00
H126   H     0.34629   0.33532   0.71898   0.00000  Uiso   1.00
H127   H     0.60620   0.09587   0.46546   0.00000  Uiso   1.00
H128   H     0.86968   0.04515   0.95671   0.00000  Uiso   1.00
H129   H     0.44113   0.47099   0.69632   0.00000  Uiso   1.00
O130   O     0.48962   0.04189   0.31497   0.00000  Uiso   1.00
O131   O     0.14728   0.97537   0.95947   0.00000  Uiso   1.00
O132   O     0.58502   0.53405   0.61784   0.00000  Uiso   1.00
N133   N     0.80798   0.07181   0.36511   0.00000  Uiso   1.00
N134   N     0.98924   0.02439   0.82440   0.00000  Uiso   1.00
N135   N     0.58863   0.42251   0.58097   0.00000  Uiso   1.00
N136   N     0.69864   0.09358   0.44628   0.00000  Uiso   1.00
N137   N     0.87989   0.04615   0.90556   0.00000  Uiso   1.00
N138   N     0.47929   0.44427   0.66214   0.00000  Uiso   1.00
C139   C     0.52852   0.67100   0.91702   0.00000  Uiso   1.00
C140   C     0.73811   0.64899   0.95724   0.00000  Uiso   1.00
C141   C     0.85341   0.61836   0.03625   0.00000  Uiso   1.00
C142   C     0.04127   0.60209   0.06163   0.00000  Uiso   1.00
C143   C     0.35605   0.56577   0.13193   0.00000  Uiso   1.00
C144   C     0.41256   0.63591   0.83066   0.00000  Uiso   1.00
C145   C     0.25413   0.59429   0.80325   0.00000  Uiso   1.00
C146   C     0.16793   0.56702   0.72206   0.00000  Uiso   1.00
C147   C     0.97721   0.51043   0.59583   0.00000  Uiso   1.00
C148   C     0.52300   0.74563   0.89776   0.00000  Uiso   1.00
C149   C     0.45738   0.79626   0.92675   0.00000  Uiso   1.00
C150   C     0.46412   0.86137   0.90204   0.00000  Uiso   1.00
C151   C     0.44486   0.97514   0.87999   0.00000  Uiso   1.00
C152   C     0.65710   0.69660   0.82157   0.00000  Uiso   1.00
C153   C     0.80794   0.66289   0.90539   0.00000  Uiso   1.00
C154   C     0.99568   0.64667   0.93065   0.00000  Uiso   1.00
C155   C     0.11124   0.61602   0.00969   0.00000  Uiso   1.00
C156   C     0.48240   0.64981   0.77881   0.00000  Uiso   1.00
C157   C     0.39640   0.62260   0.69764   0.00000  Uiso   1.00
C158   C     0.23789   0.58094   0.67012   0.00000  Uiso   1.00
C159   C     0.59284   0.75954   0.84591   0.00000  Uiso   1.00
C160   C     0.59966   0.82458   0.82114   0.00000  Uiso   1.00
C161   C     0.53408   0.87529   0.85009   0.00000  Uiso   1.00
H162   H     0.47414   0.66018   0.95738   0.00000  Uiso   1.00
H163   H     0.79931   0.60760   0.07636   0.00000  Uiso   1.00
H164   H     0.20011   0.58354   0.84338   0.00000  Uiso   1.00
H165   H     0.40335   0.78548   0.96687   0.00000  Uiso   1.00
H166   H     0.19059   0.55542   0.18538   0.00000  Uiso   1.00
H167   H     0.92712   0.50471   0.69413   0.00000  Uiso   1.00
H168   H     0.35566   0.93054   0.95452   0.00000  Uiso   1.00
H169   H     0.71147   0.70742   0.78120   0.00000  Uiso   1.00
H170   H     0.04968   0.65744   0.89051   0.00000  Uiso   1.00
H171   H     0.45048   0.63337   0.65753   0.00000  Uiso   1.00
H172   H     0.65371   0.83532   0.78102   0.00000  Uiso   1.00
H173   H     0.39380   0.59587   0.03454   0.00000  Uiso   1.00
H174   H     0.13032   0.54515   0.54329   0.00000  Uiso   1.00
H175   H     0.55887   0.97099   0.80368   0.00000  Uiso   1.00
O176   O     0.51038   0.54189   0.18503   0.00000  Uiso   1.00
O177   O     0.85272   0.47537   0.54053   0.00000  Uiso   1.00
O178   O     0.41498   0.03405   0.88216   0.00000  Uiso   1.00
N179   N     0.19202   0.57181   0.13489   0.00000  Uiso   1.00
N180   N     0.01076   0.52439   0.67560   0.00000  Uiso   1.00
N181   N     0.41137   0.92251   0.91903   0.00000  Uiso   1.00
N182   N     0.30136   0.59358   0.05372   0.00000  Uiso   1.00
N183   N     0.12011   0.54615   0.59444   0.00000  Uiso   1.00
N184   N     0.52071   0.94427   0.83786   0.00000  Uiso   1.00
