data_job_00620
_audit_creation_date              2018-12-19
_audit_creation_method            'Materials Studio'
_symmetry_space_group_name_H-M    'P1'
_symmetry_Int_Tables_number       1
_symmetry_cell_setting            triclinic
loop_
_symmetry_equiv_pos_as_xyz
  x,y,z
_cell_length_a                    21.8852
_cell_length_b                    11.7804
_cell_length_c                    30.9318
_cell_angle_alpha                 90.0000
_cell_angle_beta                  131.6098
_cell_angle_gamma                 90.0000
loop_
_atom_site_label
_atom_site_type_symbol
_atom_site_fract_x
_atom_site_fract_y
_atom_site_fract_z
_atom_site_U_iso_or_equiv
_atom_site_adp_type
_atom_site_occupancy
C1     C     0.44239   0.58649   0.61921   0.00000  Uiso   1.00
C2     C     0.36711   0.53514   0.56234   0.00000  Uiso   1.00
C3     C     0.33614   0.56526   0.50762   0.00000  Uiso   1.00
C4     C     0.26672   0.50827   0.46104   0.00000  Uiso   1.00
C5     C     0.15550   0.44129   0.37153   0.00000  Uiso   1.00
C6     C     0.49944   0.48734   0.65568   0.00000  Uiso   1.00
C7     C     0.57973   0.47728   0.67946   0.00000  Uiso   1.00
C8     C     0.62170   0.38006   0.71146   0.00000  Uiso   1.00
C9     C     0.71594   0.23890   0.76691   0.00000  Uiso   1.00
C10    C     0.41387   0.63094   0.64958   0.00000  Uiso   1.00
C11    C     0.42222   0.74161   0.66824   0.00000  Uiso   1.00
C12    C     0.39217   0.76528   0.69512   0.00000  Uiso   1.00
C13    C     0.35354   0.84708   0.74110   0.00000  Uiso   1.00
C14    C     0.37418   0.43175   0.63377   0.00000  Uiso   1.00
C15    C     0.33007   0.45109   0.57025   0.00000  Uiso   1.00
C16    C     0.26068   0.39405   0.52373   0.00000  Uiso   1.00
C17    C     0.22960   0.42407   0.46896   0.00000  Uiso   1.00
C18    C     0.46240   0.40329   0.66359   0.00000  Uiso   1.00
C19    C     0.50426   0.30607   0.69557   0.00000  Uiso   1.00
C20    C     0.58459   0.29585   0.71939   0.00000  Uiso   1.00
C21    C     0.37682   0.54689   0.65749   0.00000  Uiso   1.00
C22    C     0.34675   0.57039   0.68435   0.00000  Uiso   1.00
C23    C     0.35505   0.68107   0.70304   0.00000  Uiso   1.00
H24    H     0.47123   0.65193   0.61305   0.00000  Uiso   1.00
H25    H     0.36484   0.63030   0.50152   0.00000  Uiso   1.00
H26    H     0.60838   0.54234   0.67333   0.00000  Uiso   1.00
H27    H     0.45089   0.80663   0.66211   0.00000  Uiso   1.00
H28    H     0.23055   0.56923   0.38136   0.00000  Uiso   1.00
H29    H     0.74410   0.38377   0.74365   0.00000  Uiso   1.00
H30    H     0.41201   0.94108   0.71999   0.00000  Uiso   1.00
H31    H     0.34533   0.36630   0.63993   0.00000  Uiso   1.00
H32    H     0.23202   0.32901   0.52987   0.00000  Uiso   1.00
H33    H     0.47557   0.24104   0.70169   0.00000  Uiso   1.00
H34    H     0.31809   0.50533   0.69046   0.00000  Uiso   1.00
H35    H     0.12276   0.32468   0.40437   0.00000  Uiso   1.00
H36    H     0.63631   0.13923   0.76667   0.00000  Uiso   1.00
H37    H     0.30421   0.69653   0.74301   0.00000  Uiso   1.00
O38    O     0.10440   0.42755   0.31998   0.00000  Uiso   1.00
O39    O     0.77816   0.18425   0.79531   0.00000  Uiso   1.00
O40    O     0.34246   0.91541   0.76426   0.00000  Uiso   1.00
N41    N     0.22072   0.51681   0.40187   0.00000  Uiso   1.00
N42    N     0.70085   0.34341   0.74060   0.00000  Uiso   1.00
N43    N     0.39040   0.86443   0.71849   0.00000  Uiso   1.00
N44    N     0.16272   0.38522   0.41426   0.00000  Uiso   1.00
N45    N     0.64285   0.21182   0.75298   0.00000  Uiso   1.00
N46    N     0.33239   0.73285   0.73087   0.00000  Uiso   1.00
C47    C     0.94239   0.08649   0.61921   0.00000  Uiso   1.00
C48    C     0.86711   0.03514   0.56234   0.00000  Uiso   1.00
C49    C     0.83614   0.06526   0.50762   0.00000  Uiso   1.00
C50    C     0.76672   0.00827   0.46104   0.00000  Uiso   1.00
C51    C     0.65550   0.94129   0.37153   0.00000  Uiso   1.00
C52    C     0.99944   0.98734   0.65568   0.00000  Uiso   1.00
C53    C     0.07973   0.97728   0.67946   0.00000  Uiso   1.00
C54    C     0.12170   0.88006   0.71146   0.00000  Uiso   1.00
C55    C     0.21594   0.73890   0.76691   0.00000  Uiso   1.00
C56    C     0.91387   0.13094   0.64958   0.00000  Uiso   1.00
C57    C     0.92222   0.24161   0.66824   0.00000  Uiso   1.00
C58    C     0.89217   0.26528   0.69512   0.00000  Uiso   1.00
C59    C     0.85354   0.34708   0.74110   0.00000  Uiso   1.00
C60    C     0.87418   0.93175   0.63377   0.00000  Uiso   1.00
C61    C     0.83007   0.95109   0.57025   0.00000  Uiso   1.00
C62    C     0.76068   0.89405   0.52373   0.00000  Uiso   1.00
C63    C     0.72960   0.92407   0.46896   0.00000  Uiso   1.00
C64    C     0.96240   0.90329   0.66359   0.00000  Uiso   1.00
C65    C     0.00426   0.80607   0.69557   0.00000  Uiso   1.00
C66    C     0.08459   0.79585   0.71939   0.00000  Uiso   1.00
C67    C     0.87682   0.04689   0.65749   0.00000  Uiso   1.00
C68    C     0.84675   0.07039   0.68435   0.00000  Uiso   1.00
C69    C     0.85505   0.18107   0.70304   0.00000  Uiso   1.00
H70    H     0.97123   0.15193   0.61305   0.00000  Uiso   1.00
H71    H     0.86484   0.13030   0.50152   0.00000  Uiso   1.00
H72    H     0.10838   0.04234   0.67333   0.00000  Uiso   1.00
H73    H     0.95089   0.30663   0.66211   0.00000  Uiso   1.00
H74    H     0.73055   0.06923   0.38136   0.00000  Uiso   1.00
H75    H     0.24410   0.88377   0.74365   0.00000  Uiso   1.00
H76    H     0.91201   0.44108   0.71999   0.00000  Uiso   1.00
H77    H     0.84533   0.86630   0.63993   0.00000  Uiso   1.00
H78    H     0.73202   0.82901   0.52987   0.00000  Uiso   1.00
H79    H     0.97557   0.74104   0.70169   0.00000  Uiso   1.00
H80    H     0.81809   0.00533   0.69046   0.00000  Uiso   1.00
H81    H     0.62276   0.82468   0.40437   0.00000  Uiso   1.00
H82    H     0.13631   0.63923   0.76667   0.00000  Uiso   1.00
H83    H     0.80421   0.19653   0.74301   0.00000  Uiso   1.00
O84    O     0.60440   0.92755   0.31998   0.00000  Uiso   1.00
O85    O     0.27816   0.68425   0.79531   0.00000  Uiso   1.00
O86    O     0.84246   0.41541   0.76426   0.00000  Uiso   1.00
N87    N     0.72072   0.01681   0.40187   0.00000  Uiso   1.00
N88    N     0.20085   0.84341   0.74060   0.00000  Uiso   1.00
N89    N     0.89040   0.36443   0.71849   0.00000  Uiso   1.00
N90    N     0.66272   0.88522   0.41426   0.00000  Uiso   1.00
N91    N     0.14285   0.71182   0.75298   0.00000  Uiso   1.00
N92    N     0.83239   0.23285   0.73087   0.00000  Uiso   1.00
C93    C     0.55761   0.58649   0.88079   0.00000  Uiso   1.00
C94    C     0.63289   0.53514   0.93766   0.00000  Uiso   1.00
C95    C     0.66386   0.56526   0.99238   0.00000  Uiso   1.00
C96    C     0.73328   0.50827   0.03896   0.00000  Uiso   1.00
C97    C     0.84450   0.44129   0.12847   0.00000  Uiso   1.00
C98    C     0.50056   0.48734   0.84432   0.00000  Uiso   1.00
C99    C     0.42027   0.47728   0.82054   0.00000  Uiso   1.00
C100   C     0.37830   0.38006   0.78854   0.00000  Uiso   1.00
C101   C     0.28406   0.23890   0.73309   0.00000  Uiso   1.00
C102   C     0.58613   0.63094   0.85042   0.00000  Uiso   1.00
C103   C     0.57778   0.74161   0.83176   0.00000  Uiso   1.00
C104   C     0.60783   0.76528   0.80488   0.00000  Uiso   1.00
C105   C     0.64646   0.84708   0.75890   0.00000  Uiso   1.00
C106   C     0.62582   0.43175   0.86623   0.00000  Uiso   1.00
C107   C     0.66993   0.45109   0.92975   0.00000  Uiso   1.00
C108   C     0.73932   0.39405   0.97627   0.00000  Uiso   1.00
C109   C     0.77040   0.42407   0.03104   0.00000  Uiso   1.00
C110   C     0.53760   0.40329   0.83641   0.00000  Uiso   1.00
C111   C     0.49574   0.30607   0.80443   0.00000  Uiso   1.00
C112   C     0.41541   0.29585   0.78061   0.00000  Uiso   1.00
C113   C     0.62318   0.54689   0.84251   0.00000  Uiso   1.00
C114   C     0.65325   0.57039   0.81565   0.00000  Uiso   1.00
C115   C     0.64495   0.68107   0.79696   0.00000  Uiso   1.00
H116   H     0.52877   0.65193   0.88695   0.00000  Uiso   1.00
H117   H     0.63516   0.63030   0.99848   0.00000  Uiso   1.00
H118   H     0.39162   0.54234   0.82667   0.00000  Uiso   1.00
H119   H     0.54911   0.80663   0.83789   0.00000  Uiso   1.00
H120   H     0.76945   0.56923   0.11864   0.00000  Uiso   1.00
H121   H     0.25590   0.38377   0.75635   0.00000  Uiso   1.00
H122   H     0.58799   0.94108   0.78001   0.00000  Uiso   1.00
H123   H     0.65467   0.36630   0.86007   0.00000  Uiso   1.00
H124   H     0.76798   0.32901   0.97013   0.00000  Uiso   1.00
H125   H     0.52443   0.24104   0.79831   0.00000  Uiso   1.00
H126   H     0.68191   0.50533   0.80954   0.00000  Uiso   1.00
H127   H     0.87724   0.32468   0.09563   0.00000  Uiso   1.00
H128   H     0.36369   0.13923   0.73333   0.00000  Uiso   1.00
H129   H     0.69579   0.69653   0.75699   0.00000  Uiso   1.00
O130   O     0.89560   0.42755   0.18002   0.00000  Uiso   1.00
O131   O     0.22184   0.18425   0.70469   0.00000  Uiso   1.00
O132   O     0.65754   0.91541   0.73574   0.00000  Uiso   1.00
N133   N     0.77928   0.51681   0.09813   0.00000  Uiso   1.00
N134   N     0.29915   0.34341   0.75940   0.00000  Uiso   1.00
N135   N     0.60960   0.86443   0.78151   0.00000  Uiso   1.00
N136   N     0.83728   0.38522   0.08574   0.00000  Uiso   1.00
N137   N     0.35715   0.21182   0.74702   0.00000  Uiso   1.00
N138   N     0.66761   0.73285   0.76913   0.00000  Uiso   1.00
C139   C     0.05761   0.08649   0.88079   0.00000  Uiso   1.00
C140   C     0.13289   0.03514   0.93766   0.00000  Uiso   1.00
C141   C     0.16386   0.06526   0.99238   0.00000  Uiso   1.00
C142   C     0.23328   0.00827   0.03896   0.00000  Uiso   1.00
C143   C     0.34450   0.94129   0.12847   0.00000  Uiso   1.00
C144   C     0.00056   0.98734   0.84432   0.00000  Uiso   1.00
C145   C     0.92027   0.97728   0.82054   0.00000  Uiso   1.00
C146   C     0.87830   0.88006   0.78854   0.00000  Uiso   1.00
C147   C     0.78406   0.73890   0.73309   0.00000  Uiso   1.00
C148   C     0.08613   0.13094   0.85042   0.00000  Uiso   1.00
C149   C     0.07778   0.24161   0.83176   0.00000  Uiso   1.00
C150   C     0.10783   0.26528   0.80488   0.00000  Uiso   1.00
C151   C     0.14646   0.34708   0.75890   0.00000  Uiso   1.00
C152   C     0.12582   0.93175   0.86623   0.00000  Uiso   1.00
C153   C     0.16993   0.95109   0.92975   0.00000  Uiso   1.00
C154   C     0.23932   0.89405   0.97627   0.00000  Uiso   1.00
C155   C     0.27040   0.92407   0.03104   0.00000  Uiso   1.00
C156   C     0.03760   0.90329   0.83641   0.00000  Uiso   1.00
C157   C     0.99574   0.80607   0.80443   0.00000  Uiso   1.00
C158   C     0.91541   0.79585   0.78061   0.00000  Uiso   1.00
C159   C     0.12318   0.04689   0.84251   0.00000  Uiso   1.00
C160   C     0.15325   0.07039   0.81565   0.00000  Uiso   1.00
C161   C     0.14495   0.18107   0.79696   0.00000  Uiso   1.00
H162   H     0.02877   0.15193   0.88695   0.00000  Uiso   1.00
H163   H     0.13516   0.13030   0.99848   0.00000  Uiso   1.00
H164   H     0.89162   0.04234   0.82667   0.00000  Uiso   1.00
H165   H     0.04911   0.30663   0.83789   0.00000  Uiso   1.00
H166   H     0.26945   0.06923   0.11864   0.00000  Uiso   1.00
H167   H     0.75590   0.88377   0.75635   0.00000  Uiso   1.00
H168   H     0.08799   0.44108   0.78001   0.00000  Uiso   1.00
H169   H     0.15467   0.86630   0.86007   0.00000  Uiso   1.00
H170   H     0.26798   0.82901   0.97013   0.00000  Uiso   1.00
H171   H     0.02443   0.74104   0.79831   0.00000  Uiso   1.00
H172   H     0.18191   0.00533   0.80954   0.00000  Uiso   1.00
H173   H     0.37724   0.82468   0.09563   0.00000  Uiso   1.00
H174   H     0.86369   0.63923   0.73333   0.00000  Uiso   1.00
H175   H     0.19579   0.19653   0.75699   0.00000  Uiso   1.00
O176   O     0.39560   0.92755   0.18002   0.00000  Uiso   1.00
O177   O     0.72184   0.68425   0.70469   0.00000  Uiso   1.00
O178   O     0.15754   0.41541   0.73574   0.00000  Uiso   1.00
N179   N     0.27928   0.01681   0.09813   0.00000  Uiso   1.00
N180   N     0.79915   0.84341   0.75940   0.00000  Uiso   1.00
N181   N     0.10960   0.36443   0.78151   0.00000  Uiso   1.00
N182   N     0.33728   0.88522   0.08574   0.00000  Uiso   1.00
N183   N     0.85715   0.71182   0.74702   0.00000  Uiso   1.00
N184   N     0.16761   0.23285   0.76913   0.00000  Uiso   1.00
C185   C     0.55761   0.41351   0.38079   0.00000  Uiso   1.00
C186   C     0.63289   0.46486   0.43766   0.00000  Uiso   1.00
C187   C     0.66386   0.43474   0.49238   0.00000  Uiso   1.00
C188   C     0.73328   0.49173   0.53896   0.00000  Uiso   1.00
C189   C     0.84450   0.55871   0.62847   0.00000  Uiso   1.00
C190   C     0.50056   0.51266   0.34432   0.00000  Uiso   1.00
C191   C     0.42027   0.52272   0.32054   0.00000  Uiso   1.00
C192   C     0.37830   0.61994   0.28854   0.00000  Uiso   1.00
C193   C     0.28406   0.76110   0.23309   0.00000  Uiso   1.00
C194   C     0.58613   0.36906   0.35042   0.00000  Uiso   1.00
C195   C     0.57778   0.25839   0.33176   0.00000  Uiso   1.00
C196   C     0.60783   0.23472   0.30488   0.00000  Uiso   1.00
C197   C     0.64646   0.15292   0.25890   0.00000  Uiso   1.00
C198   C     0.62582   0.56825   0.36623   0.00000  Uiso   1.00
C199   C     0.66993   0.54891   0.42975   0.00000  Uiso   1.00
C200   C     0.73932   0.60595   0.47627   0.00000  Uiso   1.00
C201   C     0.77040   0.57593   0.53104   0.00000  Uiso   1.00
C202   C     0.53760   0.59671   0.33641   0.00000  Uiso   1.00
C203   C     0.49574   0.69393   0.30443   0.00000  Uiso   1.00
C204   C     0.41541   0.70415   0.28061   0.00000  Uiso   1.00
C205   C     0.62318   0.45311   0.34251   0.00000  Uiso   1.00
C206   C     0.65325   0.42961   0.31565   0.00000  Uiso   1.00
C207   C     0.64495   0.31893   0.29696   0.00000  Uiso   1.00
H208   H     0.52877   0.34807   0.38695   0.00000  Uiso   1.00
H209   H     0.63516   0.36970   0.49848   0.00000  Uiso   1.00
H210   H     0.39162   0.45766   0.32667   0.00000  Uiso   1.00
H211   H     0.54911   0.19337   0.33789   0.00000  Uiso   1.00
H212   H     0.76945   0.43077   0.61864   0.00000  Uiso   1.00
H213   H     0.25590   0.61623   0.25635   0.00000  Uiso   1.00
H214   H     0.58799   0.05892   0.28001   0.00000  Uiso   1.00
H215   H     0.65467   0.63370   0.36007   0.00000  Uiso   1.00
H216   H     0.76798   0.67099   0.47013   0.00000  Uiso   1.00
H217   H     0.52443   0.75896   0.29831   0.00000  Uiso   1.00
H218   H     0.68191   0.49467   0.30954   0.00000  Uiso   1.00
H219   H     0.87724   0.67532   0.59563   0.00000  Uiso   1.00
H220   H     0.36369   0.86077   0.23333   0.00000  Uiso   1.00
H221   H     0.69579   0.30347   0.25699   0.00000  Uiso   1.00
O222   O     0.89560   0.57245   0.68002   0.00000  Uiso   1.00
O223   O     0.22184   0.81575   0.20469   0.00000  Uiso   1.00
O224   O     0.65754   0.08459   0.23574   0.00000  Uiso   1.00
N225   N     0.77928   0.48319   0.59813   0.00000  Uiso   1.00
N226   N     0.29915   0.65659   0.25940   0.00000  Uiso   1.00
N227   N     0.60960   0.13557   0.28151   0.00000  Uiso   1.00
N228   N     0.83728   0.61478   0.58574   0.00000  Uiso   1.00
N229   N     0.35715   0.78818   0.24702   0.00000  Uiso   1.00
N230   N     0.66761   0.26715   0.26913   0.00000  Uiso   1.00
C231   C     0.05761   0.91351   0.38079   0.00000  Uiso   1.00
C232   C     0.13289   0.96486   0.43766   0.00000  Uiso   1.00
C233   C     0.16386   0.93474   0.49238   0.00000  Uiso   1.00
C234   C     0.23328   0.99173   0.53896   0.00000  Uiso   1.00
C235   C     0.34450   0.05871   0.62847   0.00000  Uiso   1.00
C236   C     0.00056   0.01266   0.34432   0.00000  Uiso   1.00
C237   C     0.92027   0.02272   0.32054   0.00000  Uiso   1.00
C238   C     0.87830   0.11994   0.28854   0.00000  Uiso   1.00
C239   C     0.78406   0.26110   0.23309   0.00000  Uiso   1.00
C240   C     0.08613   0.86906   0.35042   0.00000  Uiso   1.00
C241   C     0.07778   0.75839   0.33176   0.00000  Uiso   1.00
C242   C     0.10783   0.73472   0.30488   0.00000  Uiso   1.00
C243   C     0.14646   0.65292   0.25890   0.00000  Uiso   1.00
C244   C     0.12582   0.06825   0.36623   0.00000  Uiso   1.00
C245   C     0.16993   0.04891   0.42975   0.00000  Uiso   1.00
C246   C     0.23932   0.10595   0.47627   0.00000  Uiso   1.00
C247   C     0.27040   0.07593   0.53104   0.00000  Uiso   1.00
C248   C     0.03760   0.09671   0.33641   0.00000  Uiso   1.00
C249   C     0.99574   0.19393   0.30443   0.00000  Uiso   1.00
C250   C     0.91541   0.20415   0.28061   0.00000  Uiso   1.00
C251   C     0.12318   0.95311   0.34251   0.00000  Uiso   1.00
C252   C     0.15325   0.92961   0.31565   0.00000  Uiso   1.00
C253   C     0.14495   0.81893   0.29696   0.00000  Uiso   1.00
H254   H     0.02877   0.84807   0.38695   0.00000  Uiso   1.00
H255   H     0.13516   0.86970   0.49848   0.00000  Uiso   1.00
H256   H     0.89162   0.95766   0.32667   0.00000  Uiso   1.00
H257   H     0.04911   0.69337   0.33789   0.00000  Uiso   1.00
H258   H     0.26945   0.93077   0.61864   0.00000  Uiso   1.00
H259   H     0.75590   0.11623   0.25635   0.00000  Uiso   1.00
H260   H     0.08799   0.55892   0.28001   0.00000  Uiso   1.00
H261   H     0.15467   0.13370   0.36007   0.00000  Uiso   1.00
H262   H     0.26798   0.17099   0.47013   0.00000  Uiso   1.00
H263   H     0.02443   0.25896   0.29831   0.00000  Uiso   1.00
H264   H     0.18191   0.99467   0.30954   0.00000  Uiso   1.00
H265   H     0.37724   0.17532   0.59563   0.00000  Uiso   1.00
H266   H     0.86369   0.36077   0.23333   0.00000  Uiso   1.00
H267   H     0.19579   0.80347   0.25699   0.00000  Uiso   1.00
O268   O     0.39560   0.07245   0.68002   0.00000  Uiso   1.00
O269   O     0.72184   0.31575   0.20469   0.00000  Uiso   1.00
O270   O     0.15754   0.58459   0.23574   0.00000  Uiso   1.00
N271   N     0.27928   0.98319   0.59813   0.00000  Uiso   1.00
N272   N     0.79915   0.15659   0.25940   0.00000  Uiso   1.00
N273   N     0.10960   0.63557   0.28151   0.00000  Uiso   1.00
N274   N     0.33728   0.11478   0.58574   0.00000  Uiso   1.00
N275   N     0.85715   0.28818   0.24702   0.00000  Uiso   1.00
N276   N     0.16761   0.76715   0.26913   0.00000  Uiso   1.00
C277   C     0.44239   0.41351   0.11921   0.00000  Uiso   1.00
C278   C     0.36711   0.46486   0.06234   0.00000  Uiso   1.00
C279   C     0.33614   0.43474   0.00762   0.00000  Uiso   1.00
C280   C     0.26672   0.49173   0.96104   0.00000  Uiso   1.00
C281   C     0.15550   0.55871   0.87153   0.00000  Uiso   1.00
C282   C     0.49944   0.51266   0.15568   0.00000  Uiso   1.00
C283   C     0.57973   0.52272   0.17946   0.00000  Uiso   1.00
C284   C     0.62170   0.61994   0.21146   0.00000  Uiso   1.00
C285   C     0.71594   0.76110   0.26691   0.00000  Uiso   1.00
C286   C     0.41387   0.36906   0.14958   0.00000  Uiso   1.00
C287   C     0.42222   0.25839   0.16824   0.00000  Uiso   1.00
C288   C     0.39217   0.23472   0.19512   0.00000  Uiso   1.00
C289   C     0.35354   0.15292   0.24110   0.00000  Uiso   1.00
C290   C     0.37418   0.56825   0.13377   0.00000  Uiso   1.00
C291   C     0.33007   0.54891   0.07025   0.00000  Uiso   1.00
C292   C     0.26068   0.60595   0.02373   0.00000  Uiso   1.00
C293   C     0.22960   0.57593   0.96896   0.00000  Uiso   1.00
C294   C     0.46240   0.59671   0.16359   0.00000  Uiso   1.00
C295   C     0.50426   0.69393   0.19557   0.00000  Uiso   1.00
C296   C     0.58459   0.70415   0.21939   0.00000  Uiso   1.00
C297   C     0.37682   0.45311   0.15749   0.00000  Uiso   1.00
C298   C     0.34675   0.42961   0.18435   0.00000  Uiso   1.00
C299   C     0.35505   0.31893   0.20304   0.00000  Uiso   1.00
H300   H     0.47123   0.34807   0.11305   0.00000  Uiso   1.00
H301   H     0.36484   0.36970   0.00152   0.00000  Uiso   1.00
H302   H     0.60838   0.45766   0.17333   0.00000  Uiso   1.00
H303   H     0.45089   0.19337   0.16211   0.00000  Uiso   1.00
H304   H     0.23055   0.43077   0.88136   0.00000  Uiso   1.00
H305   H     0.74410   0.61623   0.24365   0.00000  Uiso   1.00
H306   H     0.41201   0.05892   0.21999   0.00000  Uiso   1.00
H307   H     0.34533   0.63370   0.13993   0.00000  Uiso   1.00
H308   H     0.23202   0.67099   0.02987   0.00000  Uiso   1.00
H309   H     0.47557   0.75896   0.20169   0.00000  Uiso   1.00
H310   H     0.31809   0.49467   0.19046   0.00000  Uiso   1.00
H311   H     0.12276   0.67532   0.90437   0.00000  Uiso   1.00
H312   H     0.63631   0.86077   0.26667   0.00000  Uiso   1.00
H313   H     0.30421   0.30347   0.24301   0.00000  Uiso   1.00
O314   O     0.10440   0.57245   0.81998   0.00000  Uiso   1.00
O315   O     0.77816   0.81575   0.29531   0.00000  Uiso   1.00
O316   O     0.34246   0.08459   0.26426   0.00000  Uiso   1.00
N317   N     0.22072   0.48319   0.90187   0.00000  Uiso   1.00
N318   N     0.70085   0.65659   0.24060   0.00000  Uiso   1.00
N319   N     0.39040   0.13557   0.21849   0.00000  Uiso   1.00
N320   N     0.16272   0.61478   0.91426   0.00000  Uiso   1.00
N321   N     0.64285   0.78818   0.25298   0.00000  Uiso   1.00
N322   N     0.33239   0.26715   0.23087   0.00000  Uiso   1.00
C323   C     0.94239   0.91351   0.11921   0.00000  Uiso   1.00
C324   C     0.86711   0.96486   0.06234   0.00000  Uiso   1.00
C325   C     0.83614   0.93474   0.00762   0.00000  Uiso   1.00
C326   C     0.76672   0.99173   0.96104   0.00000  Uiso   1.00
C327   C     0.65550   0.05871   0.87153   0.00000  Uiso   1.00
C328   C     0.99944   0.01266   0.15568   0.00000  Uiso   1.00
C329   C     0.07973   0.02272   0.17946   0.00000  Uiso   1.00
C330   C     0.12170   0.11994   0.21146   0.00000  Uiso   1.00
C331   C     0.21594   0.26110   0.26691   0.00000  Uiso   1.00
C332   C     0.91387   0.86906   0.14958   0.00000  Uiso   1.00
C333   C     0.92222   0.75839   0.16824   0.00000  Uiso   1.00
C334   C     0.89217   0.73472   0.19512   0.00000  Uiso   1.00
C335   C     0.85354   0.65292   0.24110   0.00000  Uiso   1.00
C336   C     0.87418   0.06825   0.13377   0.00000  Uiso   1.00
C337   C     0.83007   0.04891   0.07025   0.00000  Uiso   1.00
C338   C     0.76068   0.10595   0.02373   0.00000  Uiso   1.00
C339   C     0.72960   0.07593   0.96896   0.00000  Uiso   1.00
C340   C     0.96240   0.09671   0.16359   0.00000  Uiso   1.00
C341   C     0.00426   0.19393   0.19557   0.00000  Uiso   1.00
C342   C     0.08459   0.20415   0.21939   0.00000  Uiso   1.00
C343   C     0.87682   0.95311   0.15749   0.00000  Uiso   1.00
C344   C     0.84675   0.92961   0.18435   0.00000  Uiso   1.00
C345   C     0.85505   0.81893   0.20304   0.00000  Uiso   1.00
H346   H     0.97123   0.84807   0.11305   0.00000  Uiso   1.00
H347   H     0.86484   0.86970   0.00152   0.00000  Uiso   1.00
H348   H     0.10838   0.95766   0.17333   0.00000  Uiso   1.00
H349   H     0.95089   0.69337   0.16211   0.00000  Uiso   1.00
H350   H     0.73055   0.93077   0.88136   0.00000  Uiso   1.00
H351   H     0.24410   0.11623   0.24365   0.00000  Uiso   1.00
H352   H     0.91201   0.55892   0.21999   0.00000  Uiso   1.00
H353   H     0.84533   0.13370   0.13993   0.00000  Uiso   1.00
H354   H     0.73202   0.17099   0.02987   0.00000  Uiso   1.00
H355   H     0.97557   0.25896   0.20169   0.00000  Uiso   1.00
H356   H     0.81809   0.99467   0.19046   0.00000  Uiso   1.00
H357   H     0.62276   0.17532   0.90437   0.00000  Uiso   1.00
H358   H     0.13631   0.36077   0.26667   0.00000  Uiso   1.00
H359   H     0.80421   0.80347   0.24301   0.00000  Uiso   1.00
O360   O     0.60440   0.07245   0.81998   0.00000  Uiso   1.00
O361   O     0.27816   0.31575   0.29531   0.00000  Uiso   1.00
O362   O     0.84246   0.58459   0.26426   0.00000  Uiso   1.00
N363   N     0.72072   0.98319   0.90187   0.00000  Uiso   1.00
N364   N     0.20085   0.15659   0.24060   0.00000  Uiso   1.00
N365   N     0.89040   0.63557   0.21849   0.00000  Uiso   1.00
N366   N     0.66272   0.11478   0.91426   0.00000  Uiso   1.00
N367   N     0.14285   0.28818   0.25298   0.00000  Uiso   1.00
N368   N     0.83239   0.76715   0.23087   0.00000  Uiso   1.00
