data_job_00568
_audit_creation_date              2018-12-19
_audit_creation_method            'Materials Studio'
_symmetry_space_group_name_H-M    'P1'
_symmetry_Int_Tables_number       1
_symmetry_cell_setting            triclinic
loop_
_symmetry_equiv_pos_as_xyz
  x,y,z
_cell_length_a                    15.5767
_cell_length_b                    7.3922
_cell_length_c                    22.0008
_cell_angle_alpha                 90.0000
_cell_angle_beta                  90.0000
_cell_angle_gamma                 90.0000
loop_
_atom_site_label
_atom_site_type_symbol
_atom_site_fract_x
_atom_site_fract_y
_atom_site_fract_z
_atom_site_U_iso_or_equiv
_atom_site_adp_type
_atom_site_occupancy
C1     C     0.40192   0.70267   0.06109   0.00000  Uiso   1.00
C2     C     0.37957   0.76632   0.99709   0.00000  Uiso   1.00
C3     C     0.39069   0.66716   0.94411   0.00000  Uiso   1.00
C4     C     0.36628   0.74939   0.89007   0.00000  Uiso   1.00
C5     C     0.33683   0.82163   0.79084   0.00000  Uiso   1.00
C6     C     0.46343   0.84361   0.08689   0.00000  Uiso   1.00
C7     C     0.54505   0.80940   0.10941   0.00000  Uiso   1.00
C8     C     0.59123   0.95669   0.13097   0.00000  Uiso   1.00
C9     C     0.69195   0.14889   0.17118   0.00000  Uiso   1.00
C10    C     0.31951   0.71900   0.09810   0.00000  Uiso   1.00
C11    C     0.28013   0.58004   0.13007   0.00000  Uiso   1.00
C12    C     0.20514   0.62243   0.16107   0.00000  Uiso   1.00
C13    C     0.08240   0.62116   0.21869   0.00000  Uiso   1.00
C14    C     0.33879   0.02504   0.05933   0.00000  Uiso   1.00
C15    C     0.34528   0.94143   0.99614   0.00000  Uiso   1.00
C16    C     0.32084   0.02383   0.94216   0.00000  Uiso   1.00
C17    C     0.33192   0.92480   0.88911   0.00000  Uiso   1.00
C18    C     0.42914   0.01870   0.08593   0.00000  Uiso   1.00
C19    C     0.47521   0.16607   0.10746   0.00000  Uiso   1.00
C20    C     0.55688   0.13211   0.13001   0.00000  Uiso   1.00
C21    C     0.28521   0.89410   0.09714   0.00000  Uiso   1.00
C22    C     0.21028   0.93671   0.12811   0.00000  Uiso   1.00
C23    C     0.17079   0.79785   0.16012   0.00000  Uiso   1.00
H24    H     0.42862   0.56635   0.06184   0.00000  Uiso   1.00
H25    H     0.41724   0.53166   0.94487   0.00000  Uiso   1.00
H26    H     0.57157   0.67388   0.11015   0.00000  Uiso   1.00
H27    H     0.30668   0.44456   0.13080   0.00000  Uiso   1.00
H28    H     0.38952   0.57045   0.81477   0.00000  Uiso   1.00
H29    H     0.71493   0.87032   0.16329   0.00000  Uiso   1.00
H30    H     0.15637   0.38674   0.20682   0.00000  Uiso   1.00
H31    H     0.31209   0.16137   0.05859   0.00000  Uiso   1.00
H32    H     0.29431   0.15933   0.94143   0.00000  Uiso   1.00
H33    H     0.44865   0.30156   0.10671   0.00000  Uiso   1.00
H34    H     0.18376   0.07223   0.12736   0.00000  Uiso   1.00
H35    H     0.28975   0.07989   0.81197   0.00000  Uiso   1.00
H36    H     0.61517   0.37977   0.16050   0.00000  Uiso   1.00
H37    H     0.05660   0.89619   0.20403   0.00000  Uiso   1.00
O38    O     0.33007   0.81312   0.73636   0.00000  Uiso   1.00
O39    O     0.75699   0.20653   0.19362   0.00000  Uiso   1.00
O40    O     0.02417   0.57209   0.25073   0.00000  Uiso   1.00
N41    N     0.36847   0.69061   0.83019   0.00000  Uiso   1.00
N42    N     0.67271   0.97098   0.15602   0.00000  Uiso   1.00
N43    N     0.15051   0.51888   0.19674   0.00000  Uiso   1.00
N44    N     0.31478   0.96474   0.82869   0.00000  Uiso   1.00
N45    N     0.61903   0.24511   0.15452   0.00000  Uiso   1.00
N46    N     0.09683   0.79301   0.19524   0.00000  Uiso   1.00
C47    C     0.09808   0.29733   0.56109   0.00000  Uiso   1.00
C48    C     0.12043   0.23368   0.49709   0.00000  Uiso   1.00
C49    C     0.10931   0.33284   0.44411   0.00000  Uiso   1.00
C50    C     0.13372   0.25061   0.39007   0.00000  Uiso   1.00
C51    C     0.16317   0.17837   0.29084   0.00000  Uiso   1.00
C52    C     0.03657   0.15639   0.58689   0.00000  Uiso   1.00
C53    C     0.95495   0.19060   0.60941   0.00000  Uiso   1.00
C54    C     0.90877   0.04331   0.63097   0.00000  Uiso   1.00
C55    C     0.80805   0.85111   0.67118   0.00000  Uiso   1.00
C56    C     0.18049   0.28100   0.59810   0.00000  Uiso   1.00
C57    C     0.21987   0.41996   0.63007   0.00000  Uiso   1.00
C58    C     0.29486   0.37757   0.66107   0.00000  Uiso   1.00
C59    C     0.41760   0.37884   0.71869   0.00000  Uiso   1.00
C60    C     0.16121   0.97496   0.55933   0.00000  Uiso   1.00
C61    C     0.15472   0.05857   0.49614   0.00000  Uiso   1.00
C62    C     0.17916   0.97617   0.44216   0.00000  Uiso   1.00
C63    C     0.16808   0.07520   0.38911   0.00000  Uiso   1.00
C64    C     0.07086   0.98130   0.58593   0.00000  Uiso   1.00
C65    C     0.02479   0.83393   0.60746   0.00000  Uiso   1.00
C66    C     0.94312   0.86789   0.63001   0.00000  Uiso   1.00
C67    C     0.21479   0.10590   0.59714   0.00000  Uiso   1.00
C68    C     0.28972   0.06329   0.62811   0.00000  Uiso   1.00
C69    C     0.32921   0.20215   0.66012   0.00000  Uiso   1.00
H70    H     0.07138   0.43365   0.56184   0.00000  Uiso   1.00
H71    H     0.08276   0.46834   0.44487   0.00000  Uiso   1.00
H72    H     0.92843   0.32612   0.61015   0.00000  Uiso   1.00
H73    H     0.19332   0.55544   0.63080   0.00000  Uiso   1.00
H74    H     0.11048   0.42955   0.31477   0.00000  Uiso   1.00
H75    H     0.78507   0.12968   0.66329   0.00000  Uiso   1.00
H76    H     0.34363   0.61326   0.70682   0.00000  Uiso   1.00
H77    H     0.18791   0.83863   0.55859   0.00000  Uiso   1.00
H78    H     0.20569   0.84067   0.44143   0.00000  Uiso   1.00
H79    H     0.05135   0.69844   0.60671   0.00000  Uiso   1.00
H80    H     0.31624   0.92777   0.62736   0.00000  Uiso   1.00
H81    H     0.21025   0.92011   0.31197   0.00000  Uiso   1.00
H82    H     0.88483   0.62023   0.66050   0.00000  Uiso   1.00
H83    H     0.44340   0.10381   0.70403   0.00000  Uiso   1.00
O84    O     0.16993   0.18688   0.23636   0.00000  Uiso   1.00
O85    O     0.74301   0.79347   0.69362   0.00000  Uiso   1.00
O86    O     0.47583   0.42791   0.75073   0.00000  Uiso   1.00
N87    N     0.13153   0.30939   0.33019   0.00000  Uiso   1.00
N88    N     0.82729   0.02902   0.65602   0.00000  Uiso   1.00
N89    N     0.34949   0.48112   0.69674   0.00000  Uiso   1.00
N90    N     0.18522   0.03526   0.32869   0.00000  Uiso   1.00
N91    N     0.88097   0.75489   0.65452   0.00000  Uiso   1.00
N92    N     0.40317   0.20699   0.69524   0.00000  Uiso   1.00
C93    C     0.59808   0.20267   0.43891   0.00000  Uiso   1.00
C94    C     0.62043   0.26632   0.50291   0.00000  Uiso   1.00
C95    C     0.60931   0.16716   0.55589   0.00000  Uiso   1.00
C96    C     0.63372   0.24939   0.60993   0.00000  Uiso   1.00
C97    C     0.66317   0.32163   0.70916   0.00000  Uiso   1.00
C98    C     0.53657   0.34361   0.41311   0.00000  Uiso   1.00
C99    C     0.45495   0.30940   0.39059   0.00000  Uiso   1.00
C100   C     0.40877   0.45669   0.36903   0.00000  Uiso   1.00
C101   C     0.30805   0.64889   0.32882   0.00000  Uiso   1.00
C102   C     0.68049   0.21900   0.40190   0.00000  Uiso   1.00
C103   C     0.71987   0.08004   0.36993   0.00000  Uiso   1.00
C104   C     0.79486   0.12243   0.33893   0.00000  Uiso   1.00
C105   C     0.91760   0.12116   0.28131   0.00000  Uiso   1.00
C106   C     0.66121   0.52504   0.44067   0.00000  Uiso   1.00
C107   C     0.65472   0.44143   0.50386   0.00000  Uiso   1.00
C108   C     0.67916   0.52383   0.55784   0.00000  Uiso   1.00
C109   C     0.66808   0.42480   0.61089   0.00000  Uiso   1.00
C110   C     0.57086   0.51870   0.41407   0.00000  Uiso   1.00
C111   C     0.52479   0.66607   0.39254   0.00000  Uiso   1.00
C112   C     0.44312   0.63211   0.36999   0.00000  Uiso   1.00
C113   C     0.71479   0.39410   0.40286   0.00000  Uiso   1.00
C114   C     0.78972   0.43671   0.37189   0.00000  Uiso   1.00
C115   C     0.82921   0.29785   0.33988   0.00000  Uiso   1.00
H116   H     0.57138   0.06635   0.43816   0.00000  Uiso   1.00
H117   H     0.58276   0.03166   0.55513   0.00000  Uiso   1.00
H118   H     0.42843   0.17388   0.38985   0.00000  Uiso   1.00
H119   H     0.69332   0.94456   0.36920   0.00000  Uiso   1.00
H120   H     0.61048   0.07045   0.68523   0.00000  Uiso   1.00
H121   H     0.28507   0.37032   0.33671   0.00000  Uiso   1.00
H122   H     0.84363   0.88674   0.29318   0.00000  Uiso   1.00
H123   H     0.68791   0.66137   0.44141   0.00000  Uiso   1.00
H124   H     0.70569   0.65933   0.55857   0.00000  Uiso   1.00
H125   H     0.55135   0.80156   0.39329   0.00000  Uiso   1.00
H126   H     0.81624   0.57223   0.37264   0.00000  Uiso   1.00
H127   H     0.71025   0.57989   0.68803   0.00000  Uiso   1.00
H128   H     0.38483   0.87977   0.33950   0.00000  Uiso   1.00
H129   H     0.94340   0.39619   0.29597   0.00000  Uiso   1.00
O130   O     0.66993   0.31312   0.76364   0.00000  Uiso   1.00
O131   O     0.24301   0.70653   0.30638   0.00000  Uiso   1.00
O132   O     0.97583   0.07209   0.24927   0.00000  Uiso   1.00
N133   N     0.63153   0.19061   0.66981   0.00000  Uiso   1.00
N134   N     0.32729   0.47098   0.34398   0.00000  Uiso   1.00
N135   N     0.84949   0.01888   0.30326   0.00000  Uiso   1.00
N136   N     0.68522   0.46474   0.67131   0.00000  Uiso   1.00
N137   N     0.38097   0.74511   0.34548   0.00000  Uiso   1.00
N138   N     0.90317   0.29301   0.30476   0.00000  Uiso   1.00
C139   C     0.90192   0.79733   0.93891   0.00000  Uiso   1.00
C140   C     0.87957   0.73368   0.00291   0.00000  Uiso   1.00
C141   C     0.89069   0.83284   0.05589   0.00000  Uiso   1.00
C142   C     0.86628   0.75061   0.10993   0.00000  Uiso   1.00
C143   C     0.83683   0.67837   0.20916   0.00000  Uiso   1.00
C144   C     0.96343   0.65639   0.91311   0.00000  Uiso   1.00
C145   C     0.04505   0.69060   0.89059   0.00000  Uiso   1.00
C146   C     0.09123   0.54331   0.86903   0.00000  Uiso   1.00
C147   C     0.19195   0.35111   0.82882   0.00000  Uiso   1.00
C148   C     0.81951   0.78100   0.90190   0.00000  Uiso   1.00
C149   C     0.78013   0.91996   0.86993   0.00000  Uiso   1.00
C150   C     0.70514   0.87757   0.83893   0.00000  Uiso   1.00
C151   C     0.58240   0.87884   0.78131   0.00000  Uiso   1.00
C152   C     0.83879   0.47496   0.94067   0.00000  Uiso   1.00
C153   C     0.84528   0.55857   0.00386   0.00000  Uiso   1.00
C154   C     0.82084   0.47617   0.05784   0.00000  Uiso   1.00
C155   C     0.83192   0.57520   0.11089   0.00000  Uiso   1.00
C156   C     0.92914   0.48130   0.91407   0.00000  Uiso   1.00
C157   C     0.97521   0.33393   0.89254   0.00000  Uiso   1.00
C158   C     0.05688   0.36789   0.86999   0.00000  Uiso   1.00
C159   C     0.78521   0.60590   0.90286   0.00000  Uiso   1.00
C160   C     0.71028   0.56329   0.87189   0.00000  Uiso   1.00
C161   C     0.67079   0.70215   0.83988   0.00000  Uiso   1.00
H162   H     0.92862   0.93365   0.93816   0.00000  Uiso   1.00
H163   H     0.91724   0.96834   0.05513   0.00000  Uiso   1.00
H164   H     0.07157   0.82612   0.88985   0.00000  Uiso   1.00
H165   H     0.80668   0.05544   0.86920   0.00000  Uiso   1.00
H166   H     0.88952   0.92955   0.18523   0.00000  Uiso   1.00
H167   H     0.21493   0.62968   0.83671   0.00000  Uiso   1.00
H168   H     0.65637   0.11326   0.79318   0.00000  Uiso   1.00
H169   H     0.81209   0.33863   0.94141   0.00000  Uiso   1.00
H170   H     0.79431   0.34067   0.05857   0.00000  Uiso   1.00
H171   H     0.94865   0.19844   0.89329   0.00000  Uiso   1.00
H172   H     0.68376   0.42777   0.87264   0.00000  Uiso   1.00
H173   H     0.78975   0.42011   0.18803   0.00000  Uiso   1.00
H174   H     0.11517   0.12023   0.83950   0.00000  Uiso   1.00
H175   H     0.55660   0.60381   0.79597   0.00000  Uiso   1.00
O176   O     0.83007   0.68688   0.26364   0.00000  Uiso   1.00
O177   O     0.25699   0.29347   0.80638   0.00000  Uiso   1.00
O178   O     0.52417   0.92791   0.74927   0.00000  Uiso   1.00
N179   N     0.86847   0.80939   0.16981   0.00000  Uiso   1.00
N180   N     0.17271   0.52902   0.84398   0.00000  Uiso   1.00
N181   N     0.65051   0.98112   0.80326   0.00000  Uiso   1.00
N182   N     0.81478   0.53526   0.17131   0.00000  Uiso   1.00
N183   N     0.11903   0.25489   0.84548   0.00000  Uiso   1.00
N184   N     0.59683   0.70699   0.80476   0.00000  Uiso   1.00
