data_job_05142
_audit_creation_date              2018-12-19
_audit_creation_method            'Materials Studio'
_symmetry_space_group_name_H-M    'P1'
_symmetry_Int_Tables_number       1
_symmetry_cell_setting            triclinic
loop_
_symmetry_equiv_pos_as_xyz
  x,y,z
_cell_length_a                    12.3372
_cell_length_b                    9.5748
_cell_length_c                    11.1043
_cell_angle_alpha                 90.0000
_cell_angle_beta                  63.3186
_cell_angle_gamma                 90.0000
loop_
_atom_site_label
_atom_site_type_symbol
_atom_site_fract_x
_atom_site_fract_y
_atom_site_fract_z
_atom_site_U_iso_or_equiv
_atom_site_adp_type
_atom_site_occupancy
C1     C     0.42575   0.65269   0.96900   0.00000  Uiso   1.00
C2     C     0.35659   0.75762   0.92631   0.00000  Uiso   1.00
C3     C     0.36858   0.90177   0.92560   0.00000  Uiso   1.00
C4     C     0.29719   0.97964   0.88309   0.00000  Uiso   1.00
C5     C     0.20200   0.15234   0.82300   0.00000  Uiso   1.00
C6     C     0.32971   0.56487   0.08044   0.00000  Uiso   1.00
C7     C     0.31910   0.54695   0.20930   0.00000  Uiso   1.00
C8     C     0.22509   0.46253   0.29653   0.00000  Uiso   1.00
C9     C     0.08821   0.33590   0.47569   0.00000  Uiso   1.00
C10    C     0.48946   0.55466   0.84939   0.00000  Uiso   1.00
C11    C     0.61317   0.52811   0.78401   0.00000  Uiso   1.00
C12    C     0.65365   0.43506   0.67673   0.00000  Uiso   1.00
C13    C     0.76481   0.29257   0.49717   0.00000  Uiso   1.00
C14    C     0.27766   0.53463   0.89477   0.00000  Uiso   1.00
C15    C     0.27616   0.69350   0.88599   0.00000  Uiso   1.00
C16    C     0.20474   0.77116   0.84347   0.00000  Uiso   1.00
C17    C     0.21662   0.91540   0.84269   0.00000  Uiso   1.00
C18    C     0.24927   0.50075   0.04012   0.00000  Uiso   1.00
C19    C     0.15526   0.41633   0.12717   0.00000  Uiso   1.00
C20    C     0.14451   0.39829   0.25614   0.00000  Uiso   1.00
C21    C     0.40902   0.49053   0.80907   0.00000  Uiso   1.00
C22    C     0.44932   0.39750   0.70188   0.00000  Uiso   1.00
C23    C     0.57307   0.37082   0.63634   0.00000  Uiso   1.00
H24    H     0.48837   0.70260   0.00040   0.00000  Uiso   1.00
H25    H     0.43083   0.95136   0.95682   0.00000  Uiso   1.00
H26    H     0.38137   0.59657   0.24047   0.00000  Uiso   1.00
H27    H     0.67539   0.57775   0.81524   0.00000  Uiso   1.00
H28    H     0.33153   0.19888   0.89078   0.00000  Uiso   1.00
H29    H     0.22727   0.45076   0.48885   0.00000  Uiso   1.00
H30    H     0.84726   0.41105   0.59218   0.00000  Uiso   1.00
H31    H     0.21504   0.48470   0.86338   0.00000  Uiso   1.00
H32    H     0.14250   0.72151   0.81227   0.00000  Uiso   1.00
H33    H     0.09304   0.36672   0.09593   0.00000  Uiso   1.00
H34    H     0.38705   0.34790   0.67070   0.00000  Uiso   1.00
H35    H     0.09751   0.01232   0.77346   0.00000  Uiso   1.00
H36    H     0.99324   0.26419   0.37154   0.00000  Uiso   1.00
H37    H     0.61324   0.22450   0.47487   0.00000  Uiso   1.00
O38    O     0.17170   0.26531   0.80102   0.00000  Uiso   1.00
O39    O     0.03493   0.28378   0.58567   0.00000  Uiso   1.00
O40    O     0.84835   0.23170   0.40925   0.00000  Uiso   1.00
N41    N     0.28643   0.12247   0.87015   0.00000  Uiso   1.00
N42    N     0.18893   0.42304   0.42933   0.00000  Uiso   1.00
N43    N     0.76857   0.38589   0.59104   0.00000  Uiso   1.00
N44    N     0.16050   0.02209   0.80703   0.00000  Uiso   1.00
N45    N     0.06301   0.32266   0.36620   0.00000  Uiso   1.00
N46    N     0.64265   0.28551   0.52791   0.00000  Uiso   1.00
C47    C     0.57425   0.15269   0.03100   0.00000  Uiso   1.00
C48    C     0.64341   0.25762   0.07369   0.00000  Uiso   1.00
C49    C     0.63142   0.40177   0.07440   0.00000  Uiso   1.00
C50    C     0.70281   0.47964   0.11691   0.00000  Uiso   1.00
C51    C     0.79800   0.65234   0.17700   0.00000  Uiso   1.00
C52    C     0.67029   0.06487   0.91956   0.00000  Uiso   1.00
C53    C     0.68090   0.04695   0.79070   0.00000  Uiso   1.00
C54    C     0.77491   0.96253   0.70347   0.00000  Uiso   1.00
C55    C     0.91179   0.83590   0.52431   0.00000  Uiso   1.00
C56    C     0.51054   0.05466   0.15061   0.00000  Uiso   1.00
C57    C     0.38683   0.02811   0.21599   0.00000  Uiso   1.00
C58    C     0.34635   0.93507   0.32327   0.00000  Uiso   1.00
C59    C     0.23519   0.79257   0.50283   0.00000  Uiso   1.00
C60    C     0.72234   0.03463   0.10523   0.00000  Uiso   1.00
C61    C     0.72384   0.19350   0.11401   0.00000  Uiso   1.00
C62    C     0.79526   0.27116   0.15653   0.00000  Uiso   1.00
C63    C     0.78338   0.41540   0.15731   0.00000  Uiso   1.00
C64    C     0.75073   0.00075   0.95988   0.00000  Uiso   1.00
C65    C     0.84474   0.91633   0.87283   0.00000  Uiso   1.00
C66    C     0.85549   0.89829   0.74386   0.00000  Uiso   1.00
C67    C     0.59098   0.99053   0.19093   0.00000  Uiso   1.00
C68    C     0.55068   0.89750   0.29812   0.00000  Uiso   1.00
C69    C     0.42693   0.87082   0.36366   0.00000  Uiso   1.00
H70    H     0.51163   0.20260   0.99960   0.00000  Uiso   1.00
H71    H     0.56917   0.45136   0.04318   0.00000  Uiso   1.00
H72    H     0.61863   0.09657   0.75953   0.00000  Uiso   1.00
H73    H     0.32461   0.07775   0.18476   0.00000  Uiso   1.00
H74    H     0.66847   0.69888   0.10922   0.00000  Uiso   1.00
H75    H     0.77273   0.95076   0.51115   0.00000  Uiso   1.00
H76    H     0.15274   0.91105   0.40782   0.00000  Uiso   1.00
H77    H     0.78496   0.98470   0.13662   0.00000  Uiso   1.00
H78    H     0.85750   0.22151   0.18773   0.00000  Uiso   1.00
H79    H     0.90696   0.86672   0.90407   0.00000  Uiso   1.00
H80    H     0.61295   0.84790   0.32930   0.00000  Uiso   1.00
H81    H     0.90249   0.51232   0.22654   0.00000  Uiso   1.00
H82    H     0.00676   0.76419   0.62846   0.00000  Uiso   1.00
H83    H     0.38676   0.72450   0.52513   0.00000  Uiso   1.00
O84    O     0.82830   0.76531   0.19898   0.00000  Uiso   1.00
O85    O     0.96507   0.78378   0.41433   0.00000  Uiso   1.00
O86    O     0.15165   0.73170   0.59075   0.00000  Uiso   1.00
N87    N     0.71357   0.62247   0.12985   0.00000  Uiso   1.00
N88    N     0.81107   0.92304   0.57067   0.00000  Uiso   1.00
N89    N     0.23143   0.88589   0.40896   0.00000  Uiso   1.00
N90    N     0.83950   0.52209   0.19297   0.00000  Uiso   1.00
N91    N     0.93699   0.82266   0.63380   0.00000  Uiso   1.00
N92    N     0.35735   0.78551   0.47209   0.00000  Uiso   1.00
