data_job_01597
_audit_creation_date              2018-12-19
_audit_creation_method            'Materials Studio'
_symmetry_space_group_name_H-M    'P1'
_symmetry_Int_Tables_number       1
_symmetry_cell_setting            triclinic
loop_
_symmetry_equiv_pos_as_xyz
  x,y,z
_cell_length_a                    44.1552
_cell_length_b                    12.6237
_cell_length_c                    12.3423
_cell_angle_alpha                 90.0000
_cell_angle_beta                  96.3960
_cell_angle_gamma                 90.0000
loop_
_atom_site_label
_atom_site_type_symbol
_atom_site_fract_x
_atom_site_fract_y
_atom_site_fract_z
_atom_site_U_iso_or_equiv
_atom_site_adp_type
_atom_site_occupancy
C1     C     0.16864   0.31947   0.88031   0.00000  Uiso   1.00
C2     C     0.17882   0.24237   0.79640   0.00000  Uiso   1.00
C3     C     0.19568   0.15077   0.81955   0.00000  Uiso   1.00
C4     C     0.20270   0.09089   0.73135   0.00000  Uiso   1.00
C5     C     0.21997   0.96654   0.61741   0.00000  Uiso   1.00
C6     C     0.18102   0.42760   0.85215   0.00000  Uiso   1.00
C7     C     0.19974   0.49174   0.92217   0.00000  Uiso   1.00
C8     C     0.20861   0.58780   0.88089   0.00000  Uiso   1.00
C9     C     0.22928   0.75105   0.85352   0.00000  Uiso   1.00
C10    C     0.13407   0.32720   0.85682   0.00000  Uiso   1.00
C11    C     0.11330   0.30695   0.93078   0.00000  Uiso   1.00
C12    C     0.08263   0.31850   0.89345   0.00000  Uiso   1.00
C13    C     0.03040   0.32586   0.87333   0.00000  Uiso   1.00
C14    C     0.15111   0.37602   0.68251   0.00000  Uiso   1.00
C15    C     0.16930   0.27310   0.68897   0.00000  Uiso   1.00
C16    C     0.17629   0.21334   0.60070   0.00000  Uiso   1.00
C17    C     0.19316   0.12166   0.62371   0.00000  Uiso   1.00
C18    C     0.17150   0.45832   0.74471   0.00000  Uiso   1.00
C19    C     0.18035   0.55431   0.70333   0.00000  Uiso   1.00
C20    C     0.19907   0.61857   0.77326   0.00000  Uiso   1.00
C21    C     0.12455   0.35792   0.74938   0.00000  Uiso   1.00
C22    C     0.09391   0.36951   0.71193   0.00000  Uiso   1.00
C23    C     0.07310   0.34927   0.78582   0.00000  Uiso   1.00
H24    H     0.17605   0.29556   0.96395   0.00000  Uiso   1.00
H25    H     0.20305   0.12703   0.90270   0.00000  Uiso   1.00
H26    H     0.20710   0.46795   0.00531   0.00000  Uiso   1.00
H27    H     0.12067   0.28318   0.01391   0.00000  Uiso   1.00
H28    H     0.22879   0.95375   0.78742   0.00000  Uiso   1.00
H29    H     0.23732   0.67262   0.00378   0.00000  Uiso   1.00
H30    H     0.05508   0.28299   0.02193   0.00000  Uiso   1.00
H31    H     0.14370   0.39994   0.59886   0.00000  Uiso   1.00
H32    H     0.16892   0.23713   0.51757   0.00000  Uiso   1.00
H33    H     0.17297   0.57806   0.62018   0.00000  Uiso   1.00
H34    H     0.08655   0.39328   0.62879   0.00000  Uiso   1.00
H35    H     0.20110   0.04311   0.47483   0.00000  Uiso   1.00
H36    H     0.20962   0.76199   0.69120   0.00000  Uiso   1.00
H37    H     0.02738   0.37236   0.70934   0.00000  Uiso   1.00
O38    O     0.23213   0.88946   0.58424   0.00000  Uiso   1.00
O39    O     0.24331   0.83260   0.86811   0.00000  Uiso   1.00
O40    O     0.00422   0.32141   0.89191   0.00000  Uiso   1.00
N41    N     0.21881   0.99711   0.72500   0.00000  Uiso   1.00
N42    N     0.22678   0.66920   0.92729   0.00000  Uiso   1.00
N43    N     0.05641   0.30497   0.94426   0.00000  Uiso   1.00
N44    N     0.20390   0.04520   0.55680   0.00000  Uiso   1.00
N45    N     0.21188   0.71729   0.75909   0.00000  Uiso   1.00
N46    N     0.04150   0.35305   0.77606   0.00000  Uiso   1.00
C47    C     0.66864   0.81947   0.88031   0.00000  Uiso   1.00
C48    C     0.67882   0.74237   0.79640   0.00000  Uiso   1.00
C49    C     0.69568   0.65077   0.81955   0.00000  Uiso   1.00
C50    C     0.70270   0.59089   0.73135   0.00000  Uiso   1.00
C51    C     0.71997   0.46654   0.61741   0.00000  Uiso   1.00
C52    C     0.68102   0.92760   0.85215   0.00000  Uiso   1.00
C53    C     0.69974   0.99174   0.92217   0.00000  Uiso   1.00
C54    C     0.70861   0.08780   0.88089   0.00000  Uiso   1.00
C55    C     0.72928   0.25105   0.85352   0.00000  Uiso   1.00
C56    C     0.63407   0.82720   0.85682   0.00000  Uiso   1.00
C57    C     0.61330   0.80695   0.93078   0.00000  Uiso   1.00
C58    C     0.58263   0.81850   0.89345   0.00000  Uiso   1.00
C59    C     0.53040   0.82586   0.87333   0.00000  Uiso   1.00
C60    C     0.65111   0.87602   0.68251   0.00000  Uiso   1.00
C61    C     0.66930   0.77310   0.68897   0.00000  Uiso   1.00
C62    C     0.67629   0.71334   0.60070   0.00000  Uiso   1.00
C63    C     0.69316   0.62166   0.62371   0.00000  Uiso   1.00
C64    C     0.67150   0.95832   0.74471   0.00000  Uiso   1.00
C65    C     0.68035   0.05431   0.70333   0.00000  Uiso   1.00
C66    C     0.69907   0.11857   0.77326   0.00000  Uiso   1.00
C67    C     0.62455   0.85792   0.74938   0.00000  Uiso   1.00
C68    C     0.59391   0.86951   0.71193   0.00000  Uiso   1.00
C69    C     0.57310   0.84927   0.78582   0.00000  Uiso   1.00
H70    H     0.67605   0.79556   0.96395   0.00000  Uiso   1.00
H71    H     0.70305   0.62703   0.90270   0.00000  Uiso   1.00
H72    H     0.70710   0.96795   0.00531   0.00000  Uiso   1.00
H73    H     0.62067   0.78318   0.01391   0.00000  Uiso   1.00
H74    H     0.72879   0.45375   0.78742   0.00000  Uiso   1.00
H75    H     0.73732   0.17262   0.00378   0.00000  Uiso   1.00
H76    H     0.55508   0.78299   0.02193   0.00000  Uiso   1.00
H77    H     0.64370   0.89994   0.59886   0.00000  Uiso   1.00
H78    H     0.66892   0.73713   0.51757   0.00000  Uiso   1.00
H79    H     0.67297   0.07806   0.62018   0.00000  Uiso   1.00
H80    H     0.58655   0.89328   0.62879   0.00000  Uiso   1.00
H81    H     0.70110   0.54311   0.47483   0.00000  Uiso   1.00
H82    H     0.70962   0.26199   0.69120   0.00000  Uiso   1.00
H83    H     0.52738   0.87236   0.70934   0.00000  Uiso   1.00
O84    O     0.73213   0.38946   0.58424   0.00000  Uiso   1.00
O85    O     0.74331   0.33260   0.86811   0.00000  Uiso   1.00
O86    O     0.50422   0.82141   0.89191   0.00000  Uiso   1.00
N87    N     0.71881   0.49711   0.72500   0.00000  Uiso   1.00
N88    N     0.72678   0.16920   0.92729   0.00000  Uiso   1.00
N89    N     0.55641   0.80497   0.94426   0.00000  Uiso   1.00
N90    N     0.70390   0.54520   0.55680   0.00000  Uiso   1.00
N91    N     0.71188   0.21729   0.75909   0.00000  Uiso   1.00
N92    N     0.54150   0.85305   0.77606   0.00000  Uiso   1.00
C93    C     0.83136   0.31947   0.61969   0.00000  Uiso   1.00
C94    C     0.82118   0.24237   0.70360   0.00000  Uiso   1.00
C95    C     0.80432   0.15077   0.68045   0.00000  Uiso   1.00
C96    C     0.79730   0.09089   0.76865   0.00000  Uiso   1.00
C97    C     0.78003   0.96654   0.88259   0.00000  Uiso   1.00
C98    C     0.81898   0.42760   0.64785   0.00000  Uiso   1.00
C99    C     0.80026   0.49174   0.57783   0.00000  Uiso   1.00
C100   C     0.79139   0.58780   0.61911   0.00000  Uiso   1.00
C101   C     0.77072   0.75105   0.64648   0.00000  Uiso   1.00
C102   C     0.86593   0.32720   0.64318   0.00000  Uiso   1.00
C103   C     0.88670   0.30695   0.56922   0.00000  Uiso   1.00
C104   C     0.91737   0.31850   0.60655   0.00000  Uiso   1.00
C105   C     0.96960   0.32586   0.62667   0.00000  Uiso   1.00
C106   C     0.84889   0.37602   0.81749   0.00000  Uiso   1.00
C107   C     0.83070   0.27310   0.81103   0.00000  Uiso   1.00
C108   C     0.82371   0.21334   0.89930   0.00000  Uiso   1.00
C109   C     0.80684   0.12166   0.87629   0.00000  Uiso   1.00
C110   C     0.82850   0.45832   0.75529   0.00000  Uiso   1.00
C111   C     0.81965   0.55431   0.79667   0.00000  Uiso   1.00
C112   C     0.80093   0.61857   0.72674   0.00000  Uiso   1.00
C113   C     0.87545   0.35792   0.75062   0.00000  Uiso   1.00
C114   C     0.90609   0.36951   0.78807   0.00000  Uiso   1.00
C115   C     0.92690   0.34927   0.71418   0.00000  Uiso   1.00
H116   H     0.82395   0.29556   0.53605   0.00000  Uiso   1.00
H117   H     0.79695   0.12703   0.59730   0.00000  Uiso   1.00
H118   H     0.79290   0.46795   0.49469   0.00000  Uiso   1.00
H119   H     0.87933   0.28318   0.48609   0.00000  Uiso   1.00
H120   H     0.77121   0.95375   0.71258   0.00000  Uiso   1.00
H121   H     0.76268   0.67262   0.49622   0.00000  Uiso   1.00
H122   H     0.94492   0.28299   0.47807   0.00000  Uiso   1.00
H123   H     0.85630   0.39994   0.90114   0.00000  Uiso   1.00
H124   H     0.83108   0.23713   0.98243   0.00000  Uiso   1.00
H125   H     0.82703   0.57806   0.87982   0.00000  Uiso   1.00
H126   H     0.91345   0.39328   0.87121   0.00000  Uiso   1.00
H127   H     0.79890   0.04311   0.02517   0.00000  Uiso   1.00
H128   H     0.79038   0.76199   0.80880   0.00000  Uiso   1.00
H129   H     0.97262   0.37236   0.79066   0.00000  Uiso   1.00
O130   O     0.76787   0.88946   0.91576   0.00000  Uiso   1.00
O131   O     0.75669   0.83260   0.63189   0.00000  Uiso   1.00
O132   O     0.99578   0.32141   0.60809   0.00000  Uiso   1.00
N133   N     0.78119   0.99711   0.77500   0.00000  Uiso   1.00
N134   N     0.77322   0.66920   0.57271   0.00000  Uiso   1.00
N135   N     0.94359   0.30497   0.55574   0.00000  Uiso   1.00
N136   N     0.79610   0.04520   0.94320   0.00000  Uiso   1.00
N137   N     0.78812   0.71729   0.74091   0.00000  Uiso   1.00
N138   N     0.95850   0.35305   0.72394   0.00000  Uiso   1.00
C139   C     0.33136   0.81947   0.61969   0.00000  Uiso   1.00
C140   C     0.32118   0.74237   0.70360   0.00000  Uiso   1.00
C141   C     0.30432   0.65077   0.68045   0.00000  Uiso   1.00
C142   C     0.29730   0.59089   0.76865   0.00000  Uiso   1.00
C143   C     0.28003   0.46654   0.88259   0.00000  Uiso   1.00
C144   C     0.31898   0.92760   0.64785   0.00000  Uiso   1.00
C145   C     0.30026   0.99174   0.57783   0.00000  Uiso   1.00
C146   C     0.29139   0.08780   0.61911   0.00000  Uiso   1.00
C147   C     0.27072   0.25105   0.64648   0.00000  Uiso   1.00
C148   C     0.36593   0.82720   0.64318   0.00000  Uiso   1.00
C149   C     0.38670   0.80695   0.56922   0.00000  Uiso   1.00
C150   C     0.41737   0.81850   0.60655   0.00000  Uiso   1.00
C151   C     0.46960   0.82586   0.62667   0.00000  Uiso   1.00
C152   C     0.34889   0.87602   0.81749   0.00000  Uiso   1.00
C153   C     0.33070   0.77310   0.81103   0.00000  Uiso   1.00
C154   C     0.32371   0.71334   0.89930   0.00000  Uiso   1.00
C155   C     0.30684   0.62166   0.87629   0.00000  Uiso   1.00
C156   C     0.32850   0.95832   0.75529   0.00000  Uiso   1.00
C157   C     0.31965   0.05431   0.79667   0.00000  Uiso   1.00
C158   C     0.30093   0.11857   0.72674   0.00000  Uiso   1.00
C159   C     0.37545   0.85792   0.75062   0.00000  Uiso   1.00
C160   C     0.40609   0.86951   0.78807   0.00000  Uiso   1.00
C161   C     0.42690   0.84927   0.71418   0.00000  Uiso   1.00
H162   H     0.32395   0.79556   0.53605   0.00000  Uiso   1.00
H163   H     0.29695   0.62703   0.59730   0.00000  Uiso   1.00
H164   H     0.29290   0.96795   0.49469   0.00000  Uiso   1.00
H165   H     0.37933   0.78318   0.48609   0.00000  Uiso   1.00
H166   H     0.27121   0.45375   0.71258   0.00000  Uiso   1.00
H167   H     0.26268   0.17262   0.49622   0.00000  Uiso   1.00
H168   H     0.44492   0.78299   0.47807   0.00000  Uiso   1.00
H169   H     0.35630   0.89994   0.90114   0.00000  Uiso   1.00
H170   H     0.33108   0.73713   0.98243   0.00000  Uiso   1.00
H171   H     0.32703   0.07806   0.87982   0.00000  Uiso   1.00
H172   H     0.41345   0.89328   0.87121   0.00000  Uiso   1.00
H173   H     0.29890   0.54311   0.02517   0.00000  Uiso   1.00
H174   H     0.29038   0.26199   0.80880   0.00000  Uiso   1.00
H175   H     0.47262   0.87236   0.79066   0.00000  Uiso   1.00
O176   O     0.26787   0.38946   0.91576   0.00000  Uiso   1.00
O177   O     0.25669   0.33260   0.63189   0.00000  Uiso   1.00
O178   O     0.49578   0.82141   0.60809   0.00000  Uiso   1.00
N179   N     0.28119   0.49711   0.77500   0.00000  Uiso   1.00
N180   N     0.27322   0.16920   0.57271   0.00000  Uiso   1.00
N181   N     0.44359   0.80497   0.55574   0.00000  Uiso   1.00
N182   N     0.29610   0.54520   0.94320   0.00000  Uiso   1.00
N183   N     0.28812   0.21729   0.74091   0.00000  Uiso   1.00
N184   N     0.45850   0.85305   0.72394   0.00000  Uiso   1.00
C185   C     0.83136   0.68053   0.11969   0.00000  Uiso   1.00
C186   C     0.82118   0.75763   0.20360   0.00000  Uiso   1.00
C187   C     0.80432   0.84923   0.18045   0.00000  Uiso   1.00
C188   C     0.79730   0.90911   0.26865   0.00000  Uiso   1.00
C189   C     0.78003   0.03346   0.38259   0.00000  Uiso   1.00
C190   C     0.81898   0.57240   0.14785   0.00000  Uiso   1.00
C191   C     0.80026   0.50826   0.07783   0.00000  Uiso   1.00
C192   C     0.79139   0.41220   0.11911   0.00000  Uiso   1.00
C193   C     0.77072   0.24895   0.14648   0.00000  Uiso   1.00
C194   C     0.86593   0.67280   0.14318   0.00000  Uiso   1.00
C195   C     0.88670   0.69305   0.06922   0.00000  Uiso   1.00
C196   C     0.91737   0.68150   0.10655   0.00000  Uiso   1.00
C197   C     0.96960   0.67414   0.12667   0.00000  Uiso   1.00
C198   C     0.84889   0.62398   0.31749   0.00000  Uiso   1.00
C199   C     0.83070   0.72690   0.31103   0.00000  Uiso   1.00
C200   C     0.82371   0.78666   0.39930   0.00000  Uiso   1.00
C201   C     0.80684   0.87834   0.37629   0.00000  Uiso   1.00
C202   C     0.82850   0.54168   0.25529   0.00000  Uiso   1.00
C203   C     0.81965   0.44569   0.29667   0.00000  Uiso   1.00
C204   C     0.80093   0.38143   0.22674   0.00000  Uiso   1.00
C205   C     0.87545   0.64208   0.25062   0.00000  Uiso   1.00
C206   C     0.90609   0.63049   0.28807   0.00000  Uiso   1.00
C207   C     0.92690   0.65073   0.21418   0.00000  Uiso   1.00
H208   H     0.82395   0.70444   0.03605   0.00000  Uiso   1.00
H209   H     0.79695   0.87297   0.09730   0.00000  Uiso   1.00
H210   H     0.79290   0.53205   0.99469   0.00000  Uiso   1.00
H211   H     0.87933   0.71682   0.98609   0.00000  Uiso   1.00
H212   H     0.77121   0.04625   0.21258   0.00000  Uiso   1.00
H213   H     0.76268   0.32738   0.99622   0.00000  Uiso   1.00
H214   H     0.94492   0.71701   0.97807   0.00000  Uiso   1.00
H215   H     0.85630   0.60006   0.40114   0.00000  Uiso   1.00
H216   H     0.83108   0.76287   0.48243   0.00000  Uiso   1.00
H217   H     0.82703   0.42194   0.37982   0.00000  Uiso   1.00
H218   H     0.91345   0.60672   0.37121   0.00000  Uiso   1.00
H219   H     0.79890   0.95689   0.52517   0.00000  Uiso   1.00
H220   H     0.79038   0.23801   0.30880   0.00000  Uiso   1.00
H221   H     0.97262   0.62764   0.29066   0.00000  Uiso   1.00
O222   O     0.76787   0.11054   0.41576   0.00000  Uiso   1.00
O223   O     0.75669   0.16740   0.13189   0.00000  Uiso   1.00
O224   O     0.99578   0.67859   0.10809   0.00000  Uiso   1.00
N225   N     0.78119   0.00289   0.27500   0.00000  Uiso   1.00
N226   N     0.77322   0.33080   0.07271   0.00000  Uiso   1.00
N227   N     0.94359   0.69503   0.05574   0.00000  Uiso   1.00
N228   N     0.79610   0.95480   0.44320   0.00000  Uiso   1.00
N229   N     0.78812   0.28271   0.24091   0.00000  Uiso   1.00
N230   N     0.95850   0.64695   0.22394   0.00000  Uiso   1.00
C231   C     0.33136   0.18053   0.11969   0.00000  Uiso   1.00
C232   C     0.32118   0.25763   0.20360   0.00000  Uiso   1.00
C233   C     0.30432   0.34923   0.18045   0.00000  Uiso   1.00
C234   C     0.29730   0.40911   0.26865   0.00000  Uiso   1.00
C235   C     0.28003   0.53346   0.38259   0.00000  Uiso   1.00
C236   C     0.31898   0.07240   0.14785   0.00000  Uiso   1.00
C237   C     0.30026   0.00826   0.07783   0.00000  Uiso   1.00
C238   C     0.29139   0.91220   0.11911   0.00000  Uiso   1.00
C239   C     0.27072   0.74895   0.14648   0.00000  Uiso   1.00
C240   C     0.36593   0.17280   0.14318   0.00000  Uiso   1.00
C241   C     0.38670   0.19305   0.06922   0.00000  Uiso   1.00
C242   C     0.41737   0.18150   0.10655   0.00000  Uiso   1.00
C243   C     0.46960   0.17414   0.12667   0.00000  Uiso   1.00
C244   C     0.34889   0.12398   0.31749   0.00000  Uiso   1.00
C245   C     0.33070   0.22690   0.31103   0.00000  Uiso   1.00
C246   C     0.32371   0.28666   0.39930   0.00000  Uiso   1.00
C247   C     0.30684   0.37834   0.37629   0.00000  Uiso   1.00
C248   C     0.32850   0.04168   0.25529   0.00000  Uiso   1.00
C249   C     0.31965   0.94569   0.29667   0.00000  Uiso   1.00
C250   C     0.30093   0.88143   0.22674   0.00000  Uiso   1.00
C251   C     0.37545   0.14208   0.25062   0.00000  Uiso   1.00
C252   C     0.40609   0.13049   0.28807   0.00000  Uiso   1.00
C253   C     0.42690   0.15073   0.21418   0.00000  Uiso   1.00
H254   H     0.32395   0.20444   0.03605   0.00000  Uiso   1.00
H255   H     0.29695   0.37297   0.09730   0.00000  Uiso   1.00
H256   H     0.29290   0.03205   0.99469   0.00000  Uiso   1.00
H257   H     0.37933   0.21682   0.98609   0.00000  Uiso   1.00
H258   H     0.27121   0.54625   0.21258   0.00000  Uiso   1.00
H259   H     0.26268   0.82738   0.99622   0.00000  Uiso   1.00
H260   H     0.44492   0.21701   0.97807   0.00000  Uiso   1.00
H261   H     0.35630   0.10006   0.40114   0.00000  Uiso   1.00
H262   H     0.33108   0.26287   0.48243   0.00000  Uiso   1.00
H263   H     0.32703   0.92194   0.37982   0.00000  Uiso   1.00
H264   H     0.41345   0.10672   0.37121   0.00000  Uiso   1.00
H265   H     0.29890   0.45689   0.52517   0.00000  Uiso   1.00
H266   H     0.29038   0.73801   0.30880   0.00000  Uiso   1.00
H267   H     0.47262   0.12764   0.29066   0.00000  Uiso   1.00
O268   O     0.26787   0.61054   0.41576   0.00000  Uiso   1.00
O269   O     0.25669   0.66740   0.13189   0.00000  Uiso   1.00
O270   O     0.49578   0.17859   0.10809   0.00000  Uiso   1.00
N271   N     0.28119   0.50289   0.27500   0.00000  Uiso   1.00
N272   N     0.27322   0.83080   0.07271   0.00000  Uiso   1.00
N273   N     0.44359   0.19503   0.05574   0.00000  Uiso   1.00
N274   N     0.29610   0.45480   0.44320   0.00000  Uiso   1.00
N275   N     0.28812   0.78271   0.24091   0.00000  Uiso   1.00
N276   N     0.45850   0.14695   0.22394   0.00000  Uiso   1.00
C277   C     0.16864   0.68053   0.38031   0.00000  Uiso   1.00
C278   C     0.17882   0.75763   0.29640   0.00000  Uiso   1.00
C279   C     0.19568   0.84923   0.31955   0.00000  Uiso   1.00
C280   C     0.20270   0.90911   0.23135   0.00000  Uiso   1.00
C281   C     0.21997   0.03346   0.11741   0.00000  Uiso   1.00
C282   C     0.18102   0.57240   0.35215   0.00000  Uiso   1.00
C283   C     0.19974   0.50826   0.42217   0.00000  Uiso   1.00
C284   C     0.20861   0.41220   0.38089   0.00000  Uiso   1.00
C285   C     0.22928   0.24895   0.35352   0.00000  Uiso   1.00
C286   C     0.13407   0.67280   0.35682   0.00000  Uiso   1.00
C287   C     0.11330   0.69305   0.43078   0.00000  Uiso   1.00
C288   C     0.08263   0.68150   0.39345   0.00000  Uiso   1.00
C289   C     0.03040   0.67414   0.37333   0.00000  Uiso   1.00
C290   C     0.15111   0.62398   0.18251   0.00000  Uiso   1.00
C291   C     0.16930   0.72690   0.18897   0.00000  Uiso   1.00
C292   C     0.17629   0.78666   0.10070   0.00000  Uiso   1.00
C293   C     0.19316   0.87834   0.12371   0.00000  Uiso   1.00
C294   C     0.17150   0.54168   0.24471   0.00000  Uiso   1.00
C295   C     0.18035   0.44569   0.20333   0.00000  Uiso   1.00
C296   C     0.19907   0.38143   0.27326   0.00000  Uiso   1.00
C297   C     0.12455   0.64208   0.24938   0.00000  Uiso   1.00
C298   C     0.09391   0.63049   0.21193   0.00000  Uiso   1.00
C299   C     0.07310   0.65073   0.28582   0.00000  Uiso   1.00
H300   H     0.17605   0.70444   0.46395   0.00000  Uiso   1.00
H301   H     0.20305   0.87297   0.40270   0.00000  Uiso   1.00
H302   H     0.20710   0.53205   0.50531   0.00000  Uiso   1.00
H303   H     0.12067   0.71682   0.51391   0.00000  Uiso   1.00
H304   H     0.22879   0.04625   0.28742   0.00000  Uiso   1.00
H305   H     0.23732   0.32738   0.50378   0.00000  Uiso   1.00
H306   H     0.05508   0.71701   0.52193   0.00000  Uiso   1.00
H307   H     0.14370   0.60006   0.09886   0.00000  Uiso   1.00
H308   H     0.16892   0.76287   0.01757   0.00000  Uiso   1.00
H309   H     0.17297   0.42194   0.12018   0.00000  Uiso   1.00
H310   H     0.08655   0.60672   0.12879   0.00000  Uiso   1.00
H311   H     0.20110   0.95689   0.97483   0.00000  Uiso   1.00
H312   H     0.20962   0.23801   0.19120   0.00000  Uiso   1.00
H313   H     0.02738   0.62764   0.20934   0.00000  Uiso   1.00
O314   O     0.23213   0.11054   0.08424   0.00000  Uiso   1.00
O315   O     0.24331   0.16740   0.36811   0.00000  Uiso   1.00
O316   O     0.00422   0.67859   0.39191   0.00000  Uiso   1.00
N317   N     0.21881   0.00289   0.22500   0.00000  Uiso   1.00
N318   N     0.22678   0.33080   0.42729   0.00000  Uiso   1.00
N319   N     0.05641   0.69503   0.44426   0.00000  Uiso   1.00
N320   N     0.20390   0.95480   0.05680   0.00000  Uiso   1.00
N321   N     0.21188   0.28271   0.25909   0.00000  Uiso   1.00
N322   N     0.04150   0.64695   0.27606   0.00000  Uiso   1.00
C323   C     0.66864   0.18053   0.38031   0.00000  Uiso   1.00
C324   C     0.67882   0.25763   0.29640   0.00000  Uiso   1.00
C325   C     0.69568   0.34923   0.31955   0.00000  Uiso   1.00
C326   C     0.70270   0.40911   0.23135   0.00000  Uiso   1.00
C327   C     0.71997   0.53346   0.11741   0.00000  Uiso   1.00
C328   C     0.68102   0.07240   0.35215   0.00000  Uiso   1.00
C329   C     0.69974   0.00826   0.42217   0.00000  Uiso   1.00
C330   C     0.70861   0.91220   0.38089   0.00000  Uiso   1.00
C331   C     0.72928   0.74895   0.35352   0.00000  Uiso   1.00
C332   C     0.63407   0.17280   0.35682   0.00000  Uiso   1.00
C333   C     0.61330   0.19305   0.43078   0.00000  Uiso   1.00
C334   C     0.58263   0.18150   0.39345   0.00000  Uiso   1.00
C335   C     0.53040   0.17414   0.37333   0.00000  Uiso   1.00
C336   C     0.65111   0.12398   0.18251   0.00000  Uiso   1.00
C337   C     0.66930   0.22690   0.18897   0.00000  Uiso   1.00
C338   C     0.67629   0.28666   0.10070   0.00000  Uiso   1.00
C339   C     0.69316   0.37834   0.12371   0.00000  Uiso   1.00
C340   C     0.67150   0.04168   0.24471   0.00000  Uiso   1.00
C341   C     0.68035   0.94569   0.20333   0.00000  Uiso   1.00
C342   C     0.69907   0.88143   0.27326   0.00000  Uiso   1.00
C343   C     0.62455   0.14208   0.24938   0.00000  Uiso   1.00
C344   C     0.59391   0.13049   0.21193   0.00000  Uiso   1.00
C345   C     0.57310   0.15073   0.28582   0.00000  Uiso   1.00
H346   H     0.67605   0.20444   0.46395   0.00000  Uiso   1.00
H347   H     0.70305   0.37297   0.40270   0.00000  Uiso   1.00
H348   H     0.70710   0.03205   0.50531   0.00000  Uiso   1.00
H349   H     0.62067   0.21682   0.51391   0.00000  Uiso   1.00
H350   H     0.72879   0.54625   0.28742   0.00000  Uiso   1.00
H351   H     0.73732   0.82738   0.50378   0.00000  Uiso   1.00
H352   H     0.55508   0.21701   0.52193   0.00000  Uiso   1.00
H353   H     0.64370   0.10006   0.09886   0.00000  Uiso   1.00
H354   H     0.66892   0.26287   0.01757   0.00000  Uiso   1.00
H355   H     0.67297   0.92194   0.12018   0.00000  Uiso   1.00
H356   H     0.58655   0.10672   0.12879   0.00000  Uiso   1.00
H357   H     0.70110   0.45689   0.97483   0.00000  Uiso   1.00
H358   H     0.70962   0.73801   0.19120   0.00000  Uiso   1.00
H359   H     0.52738   0.12764   0.20934   0.00000  Uiso   1.00
O360   O     0.73213   0.61054   0.08424   0.00000  Uiso   1.00
O361   O     0.74331   0.66740   0.36811   0.00000  Uiso   1.00
O362   O     0.50422   0.17859   0.39191   0.00000  Uiso   1.00
N363   N     0.71881   0.50289   0.22500   0.00000  Uiso   1.00
N364   N     0.72678   0.83080   0.42729   0.00000  Uiso   1.00
N365   N     0.55641   0.19503   0.44426   0.00000  Uiso   1.00
N366   N     0.70390   0.45480   0.05680   0.00000  Uiso   1.00
N367   N     0.71188   0.78271   0.25909   0.00000  Uiso   1.00
N368   N     0.54150   0.14695   0.27606   0.00000  Uiso   1.00
