data_job_01480
_audit_creation_date              2018-12-19
_audit_creation_method            'Materials Studio'
_symmetry_space_group_name_H-M    'P1'
_symmetry_Int_Tables_number       1
_symmetry_cell_setting            triclinic
loop_
_symmetry_equiv_pos_as_xyz
  x,y,z
_cell_length_a                    17.9961
_cell_length_b                    13.6006
_cell_length_c                    19.3761
_cell_angle_alpha                 90.0000
_cell_angle_beta                  37.0915
_cell_angle_gamma                 90.0000
loop_
_atom_site_label
_atom_site_type_symbol
_atom_site_fract_x
_atom_site_fract_y
_atom_site_fract_z
_atom_site_U_iso_or_equiv
_atom_site_adp_type
_atom_site_occupancy
C1     C     0.30385   0.51180   0.48562   0.00000  Uiso   1.00
C2     C     0.26568   0.52673   0.43888   0.00000  Uiso   1.00
C3     C     0.15914   0.57335   0.49551   0.00000  Uiso   1.00
C4     C     0.14095   0.57952   0.43820   0.00000  Uiso   1.00
C5     C     0.06866   0.60861   0.38238   0.00000  Uiso   1.00
C6     C     0.32229   0.40139   0.48099   0.00000  Uiso   1.00
C7     C     0.26336   0.34264   0.57302   0.00000  Uiso   1.00
C8     C     0.29284   0.24330   0.55114   0.00000  Uiso   1.00
C9     C     0.30852   0.07781   0.56068   0.00000  Uiso   1.00
C10    C     0.43127   0.55796   0.39822   0.00000  Uiso   1.00
C11    C     0.46399   0.63083   0.42065   0.00000  Uiso   1.00
C12    C     0.58524   0.66330   0.32908   0.00000  Uiso   1.00
C13    C     0.77012   0.74091   0.21011   0.00000  Uiso   1.00
C14    C     0.46102   0.43986   0.28312   0.00000  Uiso   1.00
C15    C     0.35105   0.48766   0.32889   0.00000  Uiso   1.00
C16    C     0.33302   0.49376   0.27147   0.00000  Uiso   1.00
C17    C     0.22647   0.54038   0.32800   0.00000  Uiso   1.00
C18    C     0.40765   0.36232   0.37100   0.00000  Uiso   1.00
C19    C     0.43724   0.26305   0.34898   0.00000  Uiso   1.00
C20    C     0.37836   0.20415   0.44095   0.00000  Uiso   1.00
C21    C     0.51664   0.51889   0.28822   0.00000  Uiso   1.00
C22    C     0.63787   0.55125   0.19660   0.00000  Uiso   1.00
C23    C     0.67076   0.62415   0.21890   0.00000  Uiso   1.00
H24    H     0.23739   0.54221   0.57125   0.00000  Uiso   1.00
H25    H     0.09309   0.60357   0.58064   0.00000  Uiso   1.00
H26    H     0.19731   0.37289   0.65813   0.00000  Uiso   1.00
H27    H     0.39790   0.66105   0.50578   0.00000  Uiso   1.00
H28    H     0.97073   0.65433   0.54256   0.00000  Uiso   1.00
H29    H     0.19051   0.16795   0.70594   0.00000  Uiso   1.00
H30    H     0.61351   0.77558   0.38469   0.00000  Uiso   1.00
H31    H     0.52748   0.40944   0.19748   0.00000  Uiso   1.00
H32    H     0.39910   0.46352   0.18635   0.00000  Uiso   1.00
H33    H     0.50331   0.23284   0.26385   0.00000  Uiso   1.00
H34    H     0.70390   0.52100   0.11150   0.00000  Uiso   1.00
H35    H     0.21909   0.54066   0.22254   0.00000  Uiso   1.00
H36    H     0.43888   0.05427   0.38592   0.00000  Uiso   1.00
H37    H     0.86187   0.66190   0.06467   0.00000  Uiso   1.00
O38    O     0.00520   0.63543   0.38199   0.00000  Uiso   1.00
O39    O     0.29356   0.99732   0.59633   0.00000  Uiso   1.00
O40    O     0.84852   0.79452   0.17486   0.00000  Uiso   1.00
N41    N     0.04681   0.62017   0.46876   0.00000  Uiso   1.00
N42    N     0.25228   0.16543   0.62151   0.00000  Uiso   1.00
N43    N     0.64775   0.73350   0.32118   0.00000  Uiso   1.00
N44    N     0.18046   0.55901   0.29656   0.00000  Uiso   1.00
N45    N     0.38592   0.10426   0.44932   0.00000  Uiso   1.00
N46    N     0.78139   0.67233   0.14898   0.00000  Uiso   1.00
C47    C     0.69615   0.01180   0.01438   0.00000  Uiso   1.00
C48    C     0.73432   0.02673   0.06112   0.00000  Uiso   1.00
C49    C     0.84086   0.07335   0.00449   0.00000  Uiso   1.00
C50    C     0.85905   0.07952   0.06180   0.00000  Uiso   1.00
C51    C     0.93134   0.10861   0.11762   0.00000  Uiso   1.00
C52    C     0.67771   0.90139   0.01901   0.00000  Uiso   1.00
C53    C     0.73664   0.84264   0.92698   0.00000  Uiso   1.00
C54    C     0.70716   0.74330   0.94886   0.00000  Uiso   1.00
C55    C     0.69148   0.57781   0.93932   0.00000  Uiso   1.00
C56    C     0.56873   0.05796   0.10178   0.00000  Uiso   1.00
C57    C     0.53601   0.13083   0.07935   0.00000  Uiso   1.00
C58    C     0.41476   0.16330   0.17092   0.00000  Uiso   1.00
C59    C     0.22988   0.24091   0.28989   0.00000  Uiso   1.00
C60    C     0.53898   0.93986   0.21688   0.00000  Uiso   1.00
C61    C     0.64895   0.98766   0.17111   0.00000  Uiso   1.00
C62    C     0.66698   0.99376   0.22853   0.00000  Uiso   1.00
C63    C     0.77353   0.04038   0.17200   0.00000  Uiso   1.00
C64    C     0.59235   0.86232   0.12900   0.00000  Uiso   1.00
C65    C     0.56276   0.76305   0.15102   0.00000  Uiso   1.00
C66    C     0.62164   0.70415   0.05905   0.00000  Uiso   1.00
C67    C     0.48336   0.01889   0.21178   0.00000  Uiso   1.00
C68    C     0.36213   0.05125   0.30340   0.00000  Uiso   1.00
C69    C     0.32924   0.12415   0.28110   0.00000  Uiso   1.00
H70    H     0.76261   0.04221   0.92875   0.00000  Uiso   1.00
H71    H     0.90691   0.10357   0.91936   0.00000  Uiso   1.00
H72    H     0.80269   0.87289   0.84187   0.00000  Uiso   1.00
H73    H     0.60210   0.16105   0.99422   0.00000  Uiso   1.00
H74    H     0.02927   0.15433   0.95744   0.00000  Uiso   1.00
H75    H     0.80949   0.66795   0.79406   0.00000  Uiso   1.00
H76    H     0.38649   0.27558   0.11531   0.00000  Uiso   1.00
H77    H     0.47252   0.90944   0.30252   0.00000  Uiso   1.00
H78    H     0.60090   0.96352   0.31365   0.00000  Uiso   1.00
H79    H     0.49669   0.73284   0.23615   0.00000  Uiso   1.00
H80    H     0.29610   0.02100   0.38850   0.00000  Uiso   1.00
H81    H     0.78091   0.04066   0.27746   0.00000  Uiso   1.00
H82    H     0.56112   0.55427   0.11408   0.00000  Uiso   1.00
H83    H     0.13813   0.16190   0.43533   0.00000  Uiso   1.00
O84    O     0.99480   0.13543   0.11801   0.00000  Uiso   1.00
O85    O     0.70644   0.49732   0.90367   0.00000  Uiso   1.00
O86    O     0.15148   0.29452   0.32514   0.00000  Uiso   1.00
N87    N     0.95319   0.12017   0.03124   0.00000  Uiso   1.00
N88    N     0.74772   0.66543   0.87849   0.00000  Uiso   1.00
N89    N     0.35225   0.23350   0.17882   0.00000  Uiso   1.00
N90    N     0.81954   0.05901   0.20344   0.00000  Uiso   1.00
N91    N     0.61408   0.60426   0.05068   0.00000  Uiso   1.00
N92    N     0.21861   0.17233   0.35102   0.00000  Uiso   1.00
C93    C     0.69615   0.48820   0.51438   0.00000  Uiso   1.00
C94    C     0.73432   0.47327   0.56112   0.00000  Uiso   1.00
C95    C     0.84086   0.42665   0.50449   0.00000  Uiso   1.00
C96    C     0.85905   0.42048   0.56180   0.00000  Uiso   1.00
C97    C     0.93134   0.39139   0.61762   0.00000  Uiso   1.00
C98    C     0.67771   0.59861   0.51901   0.00000  Uiso   1.00
C99    C     0.73664   0.65736   0.42698   0.00000  Uiso   1.00
C100   C     0.70716   0.75670   0.44886   0.00000  Uiso   1.00
C101   C     0.69148   0.92219   0.43932   0.00000  Uiso   1.00
C102   C     0.56873   0.44204   0.60178   0.00000  Uiso   1.00
C103   C     0.53601   0.36917   0.57935   0.00000  Uiso   1.00
C104   C     0.41476   0.33670   0.67092   0.00000  Uiso   1.00
C105   C     0.22988   0.25909   0.78989   0.00000  Uiso   1.00
C106   C     0.53898   0.56014   0.71688   0.00000  Uiso   1.00
C107   C     0.64895   0.51234   0.67111   0.00000  Uiso   1.00
C108   C     0.66698   0.50624   0.72853   0.00000  Uiso   1.00
C109   C     0.77353   0.45962   0.67200   0.00000  Uiso   1.00
C110   C     0.59235   0.63768   0.62900   0.00000  Uiso   1.00
C111   C     0.56276   0.73695   0.65102   0.00000  Uiso   1.00
C112   C     0.62164   0.79585   0.55905   0.00000  Uiso   1.00
C113   C     0.48336   0.48111   0.71178   0.00000  Uiso   1.00
C114   C     0.36213   0.44875   0.80340   0.00000  Uiso   1.00
C115   C     0.32924   0.37585   0.78110   0.00000  Uiso   1.00
H116   H     0.76261   0.45779   0.42875   0.00000  Uiso   1.00
H117   H     0.90691   0.39643   0.41936   0.00000  Uiso   1.00
H118   H     0.80269   0.62711   0.34187   0.00000  Uiso   1.00
H119   H     0.60210   0.33895   0.49422   0.00000  Uiso   1.00
H120   H     0.02927   0.34567   0.45744   0.00000  Uiso   1.00
H121   H     0.80949   0.83205   0.29406   0.00000  Uiso   1.00
H122   H     0.38649   0.22442   0.61531   0.00000  Uiso   1.00
H123   H     0.47252   0.59056   0.80252   0.00000  Uiso   1.00
H124   H     0.60090   0.53648   0.81365   0.00000  Uiso   1.00
H125   H     0.49669   0.76716   0.73615   0.00000  Uiso   1.00
H126   H     0.29610   0.47900   0.88850   0.00000  Uiso   1.00
H127   H     0.78091   0.45934   0.77746   0.00000  Uiso   1.00
H128   H     0.56112   0.94573   0.61408   0.00000  Uiso   1.00
H129   H     0.13813   0.33810   0.93533   0.00000  Uiso   1.00
O130   O     0.99480   0.36457   0.61801   0.00000  Uiso   1.00
O131   O     0.70644   0.00268   0.40367   0.00000  Uiso   1.00
O132   O     0.15148   0.20548   0.82514   0.00000  Uiso   1.00
N133   N     0.95319   0.37983   0.53124   0.00000  Uiso   1.00
N134   N     0.74772   0.83457   0.37849   0.00000  Uiso   1.00
N135   N     0.35225   0.26650   0.67882   0.00000  Uiso   1.00
N136   N     0.81954   0.44099   0.70344   0.00000  Uiso   1.00
N137   N     0.61408   0.89574   0.55068   0.00000  Uiso   1.00
N138   N     0.21861   0.32767   0.85102   0.00000  Uiso   1.00
C139   C     0.30385   0.98820   0.98562   0.00000  Uiso   1.00
C140   C     0.26568   0.97327   0.93888   0.00000  Uiso   1.00
C141   C     0.15914   0.92665   0.99551   0.00000  Uiso   1.00
C142   C     0.14095   0.92048   0.93820   0.00000  Uiso   1.00
C143   C     0.06866   0.89139   0.88238   0.00000  Uiso   1.00
C144   C     0.32229   0.09861   0.98099   0.00000  Uiso   1.00
C145   C     0.26336   0.15736   0.07302   0.00000  Uiso   1.00
C146   C     0.29284   0.25670   0.05114   0.00000  Uiso   1.00
C147   C     0.30852   0.42219   0.06068   0.00000  Uiso   1.00
C148   C     0.43127   0.94204   0.89822   0.00000  Uiso   1.00
C149   C     0.46399   0.86917   0.92065   0.00000  Uiso   1.00
C150   C     0.58524   0.83670   0.82908   0.00000  Uiso   1.00
C151   C     0.77012   0.75909   0.71011   0.00000  Uiso   1.00
C152   C     0.46102   0.06014   0.78312   0.00000  Uiso   1.00
C153   C     0.35105   0.01234   0.82889   0.00000  Uiso   1.00
C154   C     0.33302   0.00624   0.77147   0.00000  Uiso   1.00
C155   C     0.22647   0.95962   0.82800   0.00000  Uiso   1.00
C156   C     0.40765   0.13768   0.87100   0.00000  Uiso   1.00
C157   C     0.43724   0.23695   0.84898   0.00000  Uiso   1.00
C158   C     0.37836   0.29585   0.94095   0.00000  Uiso   1.00
C159   C     0.51664   0.98111   0.78822   0.00000  Uiso   1.00
C160   C     0.63787   0.94875   0.69660   0.00000  Uiso   1.00
C161   C     0.67076   0.87585   0.71890   0.00000  Uiso   1.00
H162   H     0.23739   0.95779   0.07125   0.00000  Uiso   1.00
H163   H     0.09309   0.89643   0.08064   0.00000  Uiso   1.00
H164   H     0.19731   0.12711   0.15813   0.00000  Uiso   1.00
H165   H     0.39790   0.83895   0.00578   0.00000  Uiso   1.00
H166   H     0.97073   0.84567   0.04256   0.00000  Uiso   1.00
H167   H     0.19051   0.33205   0.20594   0.00000  Uiso   1.00
H168   H     0.61351   0.72442   0.88469   0.00000  Uiso   1.00
H169   H     0.52748   0.09056   0.69748   0.00000  Uiso   1.00
H170   H     0.39910   0.03648   0.68635   0.00000  Uiso   1.00
H171   H     0.50331   0.26716   0.76385   0.00000  Uiso   1.00
H172   H     0.70390   0.97900   0.61150   0.00000  Uiso   1.00
H173   H     0.21909   0.95934   0.72254   0.00000  Uiso   1.00
H174   H     0.43888   0.44573   0.88592   0.00000  Uiso   1.00
H175   H     0.86187   0.83810   0.56467   0.00000  Uiso   1.00
O176   O     0.00520   0.86457   0.88199   0.00000  Uiso   1.00
O177   O     0.29356   0.50268   0.09633   0.00000  Uiso   1.00
O178   O     0.84852   0.70548   0.67486   0.00000  Uiso   1.00
N179   N     0.04681   0.87983   0.96876   0.00000  Uiso   1.00
N180   N     0.25228   0.33457   0.12151   0.00000  Uiso   1.00
N181   N     0.64775   0.76650   0.82118   0.00000  Uiso   1.00
N182   N     0.18046   0.94099   0.79656   0.00000  Uiso   1.00
N183   N     0.38592   0.39574   0.94932   0.00000  Uiso   1.00
N184   N     0.78139   0.82767   0.64898   0.00000  Uiso   1.00
