data_job_04072
_audit_creation_date              2018-12-19
_audit_creation_method            'Materials Studio'
_symmetry_space_group_name_H-M    'P1'
_symmetry_Int_Tables_number       1
_symmetry_cell_setting            triclinic
loop_
_symmetry_equiv_pos_as_xyz
  x,y,z
_cell_length_a                    19.5062
_cell_length_b                    10.7486
_cell_length_c                    24.8512
_cell_angle_alpha                 90.0000
_cell_angle_beta                  90.0000
_cell_angle_gamma                 90.0000
loop_
_atom_site_label
_atom_site_type_symbol
_atom_site_fract_x
_atom_site_fract_y
_atom_site_fract_z
_atom_site_U_iso_or_equiv
_atom_site_adp_type
_atom_site_occupancy
C1     C     0.49163   0.09894   0.07006   0.00000  Uiso   1.00
C2     C     0.46999   0.23525   0.06887   0.00000  Uiso   1.00
C3     C     0.44416   0.29815   0.02452   0.00000  Uiso   1.00
C4     C     0.42739   0.42260   0.03163   0.00000  Uiso   1.00
C5     C     0.39249   0.62524   0.02221   0.00000  Uiso   1.00
C6     C     0.56595   0.09790   0.08909   0.00000  Uiso   1.00
C7     C     0.62080   0.04532   0.06174   0.00000  Uiso   1.00
C8     C     0.68480   0.05414   0.08589   0.00000  Uiso   1.00
C9     C     0.79887   0.04347   0.10788   0.00000  Uiso   1.00
C10    C     0.45001   0.03848   0.11494   0.00000  Uiso   1.00
C11    C     0.40739   0.93591   0.10933   0.00000  Uiso   1.00
C12    C     0.37379   0.89468   0.15525   0.00000  Uiso   1.00
C13    C     0.30785   0.79175   0.21738   0.00000  Uiso   1.00
C14    C     0.50776   0.20809   0.16158   0.00000  Uiso   1.00
C15    C     0.47876   0.29453   0.11858   0.00000  Uiso   1.00
C16    C     0.46201   0.41891   0.12577   0.00000  Uiso   1.00
C17    C     0.43617   0.48199   0.08143   0.00000  Uiso   1.00
C18    C     0.57471   0.15718   0.13880   0.00000  Uiso   1.00
C19    C     0.63865   0.16608   0.16299   0.00000  Uiso   1.00
C20    C     0.69358   0.11353   0.13569   0.00000  Uiso   1.00
C21    C     0.45877   0.09777   0.16465   0.00000  Uiso   1.00
C22    C     0.42524   0.05668   0.21058   0.00000  Uiso   1.00
C23    C     0.38257   0.95407   0.20505   0.00000  Uiso   1.00
H24    H     0.48481   0.05279   0.03136   0.00000  Uiso   1.00
H25    H     0.43739   0.25224   0.98605   0.00000  Uiso   1.00
H26    H     0.61400   0.99944   0.02328   0.00000  Uiso   1.00
H27    H     0.40062   0.89006   0.07086   0.00000  Uiso   1.00
H28    H     0.38871   0.49953   0.95773   0.00000  Uiso   1.00
H29    H     0.76109   0.96644   0.03623   0.00000  Uiso   1.00
H30    H     0.31114   0.73579   0.13657   0.00000  Uiso   1.00
H31    H     0.51459   0.25425   0.20028   0.00000  Uiso   1.00
H32    H     0.46880   0.46476   0.16424   0.00000  Uiso   1.00
H33    H     0.64541   0.21195   0.20146   0.00000  Uiso   1.00
H34    H     0.43203   0.10258   0.24904   0.00000  Uiso   1.00
H35    H     0.41421   0.67203   0.10235   0.00000  Uiso   1.00
H36    H     0.78659   0.13892   0.18085   0.00000  Uiso   1.00
H37    H     0.33664   0.90828   0.28119   0.00000  Uiso   1.00
O38    O     0.37083   0.72064   0.00328   0.00000  Uiso   1.00
O39    O     0.85937   0.02122   0.10627   0.00000  Uiso   1.00
O40    O     0.26905   0.71862   0.23791   0.00000  Uiso   1.00
N41    N     0.40098   0.51123   0.99672   0.00000  Uiso   1.00
N42    N     0.74914   0.01284   0.07011   0.00000  Uiso   1.00
N43    N     0.32849   0.79718   0.16392   0.00000  Uiso   1.00
N44    N     0.41470   0.60405   0.07454   0.00000  Uiso   1.00
N45    N     0.76286   0.10565   0.14793   0.00000  Uiso   1.00
N46    N     0.34221   0.88999   0.24173   0.00000  Uiso   1.00
C47    C     0.00837   0.40106   0.57006   0.00000  Uiso   1.00
C48    C     0.03001   0.26475   0.56887   0.00000  Uiso   1.00
C49    C     0.05584   0.20185   0.52452   0.00000  Uiso   1.00
C50    C     0.07261   0.07740   0.53163   0.00000  Uiso   1.00
C51    C     0.10751   0.87476   0.52221   0.00000  Uiso   1.00
C52    C     0.93405   0.40210   0.58909   0.00000  Uiso   1.00
C53    C     0.87920   0.45468   0.56174   0.00000  Uiso   1.00
C54    C     0.81520   0.44586   0.58589   0.00000  Uiso   1.00
C55    C     0.70113   0.45653   0.60788   0.00000  Uiso   1.00
C56    C     0.04999   0.46152   0.61494   0.00000  Uiso   1.00
C57    C     0.09261   0.56409   0.60933   0.00000  Uiso   1.00
C58    C     0.12621   0.60532   0.65525   0.00000  Uiso   1.00
C59    C     0.19215   0.70825   0.71738   0.00000  Uiso   1.00
C60    C     0.99224   0.29191   0.66158   0.00000  Uiso   1.00
C61    C     0.02124   0.20547   0.61858   0.00000  Uiso   1.00
C62    C     0.03799   0.08109   0.62577   0.00000  Uiso   1.00
C63    C     0.06383   0.01801   0.58143   0.00000  Uiso   1.00
C64    C     0.92529   0.34282   0.63880   0.00000  Uiso   1.00
C65    C     0.86135   0.33392   0.66299   0.00000  Uiso   1.00
C66    C     0.80642   0.38647   0.63569   0.00000  Uiso   1.00
C67    C     0.04123   0.40223   0.66465   0.00000  Uiso   1.00
C68    C     0.07476   0.44332   0.71058   0.00000  Uiso   1.00
C69    C     0.11743   0.54593   0.70505   0.00000  Uiso   1.00
H70    H     0.01519   0.44721   0.53136   0.00000  Uiso   1.00
H71    H     0.06261   0.24776   0.48605   0.00000  Uiso   1.00
H72    H     0.88600   0.50056   0.52328   0.00000  Uiso   1.00
H73    H     0.09938   0.60994   0.57086   0.00000  Uiso   1.00
H74    H     0.11129   0.00047   0.45773   0.00000  Uiso   1.00
H75    H     0.73891   0.53356   0.53623   0.00000  Uiso   1.00
H76    H     0.18886   0.76421   0.63657   0.00000  Uiso   1.00
H77    H     0.98541   0.24575   0.70028   0.00000  Uiso   1.00
H78    H     0.03120   0.03524   0.66424   0.00000  Uiso   1.00
H79    H     0.85459   0.28805   0.70146   0.00000  Uiso   1.00
H80    H     0.06797   0.39742   0.74904   0.00000  Uiso   1.00
H81    H     0.08579   0.82797   0.60235   0.00000  Uiso   1.00
H82    H     0.71341   0.36108   0.68085   0.00000  Uiso   1.00
H83    H     0.16336   0.59172   0.78119   0.00000  Uiso   1.00
O84    O     0.12917   0.77936   0.50328   0.00000  Uiso   1.00
O85    O     0.64063   0.47878   0.60627   0.00000  Uiso   1.00
O86    O     0.23095   0.78138   0.73791   0.00000  Uiso   1.00
N87    N     0.09902   0.98877   0.49672   0.00000  Uiso   1.00
N88    N     0.75086   0.48716   0.57011   0.00000  Uiso   1.00
N89    N     0.17151   0.70282   0.66392   0.00000  Uiso   1.00
N90    N     0.08530   0.89595   0.57454   0.00000  Uiso   1.00
N91    N     0.73714   0.39435   0.64793   0.00000  Uiso   1.00
N92    N     0.15779   0.61001   0.74173   0.00000  Uiso   1.00
C93    C     0.50837   0.09894   0.42994   0.00000  Uiso   1.00
C94    C     0.53001   0.23525   0.43113   0.00000  Uiso   1.00
C95    C     0.55584   0.29815   0.47548   0.00000  Uiso   1.00
C96    C     0.57261   0.42260   0.46837   0.00000  Uiso   1.00
C97    C     0.60751   0.62524   0.47779   0.00000  Uiso   1.00
C98    C     0.43405   0.09790   0.41091   0.00000  Uiso   1.00
C99    C     0.37920   0.04532   0.43826   0.00000  Uiso   1.00
C100   C     0.31520   0.05414   0.41411   0.00000  Uiso   1.00
C101   C     0.20113   0.04347   0.39212   0.00000  Uiso   1.00
C102   C     0.54999   0.03848   0.38506   0.00000  Uiso   1.00
C103   C     0.59261   0.93591   0.39067   0.00000  Uiso   1.00
C104   C     0.62621   0.89468   0.34475   0.00000  Uiso   1.00
C105   C     0.69215   0.79175   0.28262   0.00000  Uiso   1.00
C106   C     0.49224   0.20809   0.33842   0.00000  Uiso   1.00
C107   C     0.52124   0.29453   0.38142   0.00000  Uiso   1.00
C108   C     0.53799   0.41891   0.37423   0.00000  Uiso   1.00
C109   C     0.56383   0.48199   0.41857   0.00000  Uiso   1.00
C110   C     0.42529   0.15718   0.36120   0.00000  Uiso   1.00
C111   C     0.36135   0.16608   0.33701   0.00000  Uiso   1.00
C112   C     0.30642   0.11353   0.36431   0.00000  Uiso   1.00
C113   C     0.54123   0.09777   0.33535   0.00000  Uiso   1.00
C114   C     0.57476   0.05668   0.28942   0.00000  Uiso   1.00
C115   C     0.61743   0.95407   0.29495   0.00000  Uiso   1.00
H116   H     0.51519   0.05279   0.46864   0.00000  Uiso   1.00
H117   H     0.56261   0.25224   0.51395   0.00000  Uiso   1.00
H118   H     0.38600   0.99944   0.47672   0.00000  Uiso   1.00
H119   H     0.59938   0.89006   0.42914   0.00000  Uiso   1.00
H120   H     0.61129   0.49953   0.54227   0.00000  Uiso   1.00
H121   H     0.23891   0.96644   0.46377   0.00000  Uiso   1.00
H122   H     0.68886   0.73579   0.36343   0.00000  Uiso   1.00
H123   H     0.48541   0.25425   0.29972   0.00000  Uiso   1.00
H124   H     0.53120   0.46476   0.33576   0.00000  Uiso   1.00
H125   H     0.35459   0.21195   0.29854   0.00000  Uiso   1.00
H126   H     0.56797   0.10258   0.25096   0.00000  Uiso   1.00
H127   H     0.58579   0.67203   0.39765   0.00000  Uiso   1.00
H128   H     0.21341   0.13892   0.31915   0.00000  Uiso   1.00
H129   H     0.66336   0.90828   0.21881   0.00000  Uiso   1.00
O130   O     0.62917   0.72064   0.49672   0.00000  Uiso   1.00
O131   O     0.14063   0.02122   0.39373   0.00000  Uiso   1.00
O132   O     0.73095   0.71862   0.26209   0.00000  Uiso   1.00
N133   N     0.59902   0.51123   0.50328   0.00000  Uiso   1.00
N134   N     0.25086   0.01284   0.42989   0.00000  Uiso   1.00
N135   N     0.67151   0.79718   0.33608   0.00000  Uiso   1.00
N136   N     0.58530   0.60405   0.42546   0.00000  Uiso   1.00
N137   N     0.23714   0.10565   0.35207   0.00000  Uiso   1.00
N138   N     0.65779   0.88999   0.25827   0.00000  Uiso   1.00
C139   C     0.99163   0.40106   0.92994   0.00000  Uiso   1.00
C140   C     0.96999   0.26475   0.93113   0.00000  Uiso   1.00
C141   C     0.94416   0.20185   0.97548   0.00000  Uiso   1.00
C142   C     0.92739   0.07740   0.96837   0.00000  Uiso   1.00
C143   C     0.89249   0.87476   0.97779   0.00000  Uiso   1.00
C144   C     0.06595   0.40210   0.91091   0.00000  Uiso   1.00
C145   C     0.12080   0.45468   0.93826   0.00000  Uiso   1.00
C146   C     0.18480   0.44586   0.91411   0.00000  Uiso   1.00
C147   C     0.29887   0.45653   0.89212   0.00000  Uiso   1.00
C148   C     0.95001   0.46152   0.88506   0.00000  Uiso   1.00
C149   C     0.90739   0.56409   0.89067   0.00000  Uiso   1.00
C150   C     0.87379   0.60532   0.84475   0.00000  Uiso   1.00
C151   C     0.80785   0.70825   0.78262   0.00000  Uiso   1.00
C152   C     0.00776   0.29191   0.83842   0.00000  Uiso   1.00
C153   C     0.97876   0.20547   0.88142   0.00000  Uiso   1.00
C154   C     0.96201   0.08109   0.87423   0.00000  Uiso   1.00
C155   C     0.93617   0.01801   0.91857   0.00000  Uiso   1.00
C156   C     0.07471   0.34282   0.86120   0.00000  Uiso   1.00
C157   C     0.13865   0.33392   0.83701   0.00000  Uiso   1.00
C158   C     0.19358   0.38647   0.86431   0.00000  Uiso   1.00
C159   C     0.95877   0.40223   0.83535   0.00000  Uiso   1.00
C160   C     0.92524   0.44332   0.78942   0.00000  Uiso   1.00
C161   C     0.88257   0.54593   0.79495   0.00000  Uiso   1.00
H162   H     0.98481   0.44721   0.96864   0.00000  Uiso   1.00
H163   H     0.93739   0.24776   0.01395   0.00000  Uiso   1.00
H164   H     0.11400   0.50056   0.97672   0.00000  Uiso   1.00
H165   H     0.90062   0.60994   0.92914   0.00000  Uiso   1.00
H166   H     0.88871   0.00047   0.04227   0.00000  Uiso   1.00
H167   H     0.26109   0.53356   0.96377   0.00000  Uiso   1.00
H168   H     0.81114   0.76421   0.86343   0.00000  Uiso   1.00
H169   H     0.01459   0.24575   0.79972   0.00000  Uiso   1.00
H170   H     0.96880   0.03524   0.83576   0.00000  Uiso   1.00
H171   H     0.14541   0.28805   0.79854   0.00000  Uiso   1.00
H172   H     0.93203   0.39742   0.75096   0.00000  Uiso   1.00
H173   H     0.91421   0.82797   0.89765   0.00000  Uiso   1.00
H174   H     0.28659   0.36108   0.81915   0.00000  Uiso   1.00
H175   H     0.83664   0.59172   0.71881   0.00000  Uiso   1.00
O176   O     0.87083   0.77936   0.99672   0.00000  Uiso   1.00
O177   O     0.35937   0.47878   0.89373   0.00000  Uiso   1.00
O178   O     0.76905   0.78138   0.76209   0.00000  Uiso   1.00
N179   N     0.90098   0.98877   0.00328   0.00000  Uiso   1.00
N180   N     0.24914   0.48716   0.92989   0.00000  Uiso   1.00
N181   N     0.82849   0.70282   0.83608   0.00000  Uiso   1.00
N182   N     0.91470   0.89595   0.92546   0.00000  Uiso   1.00
N183   N     0.26286   0.39435   0.85207   0.00000  Uiso   1.00
N184   N     0.84221   0.61001   0.75827   0.00000  Uiso   1.00
C185   C     0.50837   0.90106   0.92994   0.00000  Uiso   1.00
C186   C     0.53001   0.76475   0.93113   0.00000  Uiso   1.00
C187   C     0.55584   0.70185   0.97548   0.00000  Uiso   1.00
C188   C     0.57261   0.57740   0.96837   0.00000  Uiso   1.00
C189   C     0.60751   0.37476   0.97779   0.00000  Uiso   1.00
C190   C     0.43405   0.90210   0.91091   0.00000  Uiso   1.00
C191   C     0.37920   0.95468   0.93826   0.00000  Uiso   1.00
C192   C     0.31520   0.94586   0.91411   0.00000  Uiso   1.00
C193   C     0.20113   0.95653   0.89212   0.00000  Uiso   1.00
C194   C     0.54999   0.96152   0.88506   0.00000  Uiso   1.00
C195   C     0.59261   0.06409   0.89067   0.00000  Uiso   1.00
C196   C     0.62621   0.10532   0.84475   0.00000  Uiso   1.00
C197   C     0.69215   0.20825   0.78262   0.00000  Uiso   1.00
C198   C     0.49224   0.79191   0.83842   0.00000  Uiso   1.00
C199   C     0.52124   0.70547   0.88142   0.00000  Uiso   1.00
C200   C     0.53799   0.58109   0.87423   0.00000  Uiso   1.00
C201   C     0.56383   0.51801   0.91857   0.00000  Uiso   1.00
C202   C     0.42529   0.84282   0.86120   0.00000  Uiso   1.00
C203   C     0.36135   0.83392   0.83701   0.00000  Uiso   1.00
C204   C     0.30642   0.88647   0.86431   0.00000  Uiso   1.00
C205   C     0.54123   0.90223   0.83535   0.00000  Uiso   1.00
C206   C     0.57476   0.94332   0.78942   0.00000  Uiso   1.00
C207   C     0.61743   0.04593   0.79495   0.00000  Uiso   1.00
H208   H     0.51519   0.94721   0.96864   0.00000  Uiso   1.00
H209   H     0.56261   0.74776   0.01395   0.00000  Uiso   1.00
H210   H     0.38600   0.00056   0.97672   0.00000  Uiso   1.00
H211   H     0.59938   0.10994   0.92914   0.00000  Uiso   1.00
H212   H     0.61129   0.50047   0.04227   0.00000  Uiso   1.00
H213   H     0.23891   0.03356   0.96377   0.00000  Uiso   1.00
H214   H     0.68886   0.26421   0.86343   0.00000  Uiso   1.00
H215   H     0.48541   0.74575   0.79972   0.00000  Uiso   1.00
H216   H     0.53120   0.53524   0.83576   0.00000  Uiso   1.00
H217   H     0.35459   0.78805   0.79854   0.00000  Uiso   1.00
H218   H     0.56797   0.89742   0.75096   0.00000  Uiso   1.00
H219   H     0.58579   0.32797   0.89765   0.00000  Uiso   1.00
H220   H     0.21341   0.86108   0.81915   0.00000  Uiso   1.00
H221   H     0.66336   0.09172   0.71881   0.00000  Uiso   1.00
O222   O     0.62917   0.27936   0.99672   0.00000  Uiso   1.00
O223   O     0.14063   0.97878   0.89373   0.00000  Uiso   1.00
O224   O     0.73095   0.28138   0.76209   0.00000  Uiso   1.00
N225   N     0.59902   0.48877   0.00328   0.00000  Uiso   1.00
N226   N     0.25086   0.98716   0.92989   0.00000  Uiso   1.00
N227   N     0.67151   0.20282   0.83608   0.00000  Uiso   1.00
N228   N     0.58530   0.39595   0.92546   0.00000  Uiso   1.00
N229   N     0.23714   0.89435   0.85207   0.00000  Uiso   1.00
N230   N     0.65779   0.11001   0.75827   0.00000  Uiso   1.00
C231   C     0.99163   0.59894   0.42994   0.00000  Uiso   1.00
C232   C     0.96999   0.73525   0.43113   0.00000  Uiso   1.00
C233   C     0.94416   0.79815   0.47548   0.00000  Uiso   1.00
C234   C     0.92739   0.92260   0.46837   0.00000  Uiso   1.00
C235   C     0.89249   0.12524   0.47779   0.00000  Uiso   1.00
C236   C     0.06595   0.59790   0.41091   0.00000  Uiso   1.00
C237   C     0.12080   0.54532   0.43826   0.00000  Uiso   1.00
C238   C     0.18480   0.55414   0.41411   0.00000  Uiso   1.00
C239   C     0.29887   0.54347   0.39212   0.00000  Uiso   1.00
C240   C     0.95001   0.53848   0.38506   0.00000  Uiso   1.00
C241   C     0.90739   0.43591   0.39067   0.00000  Uiso   1.00
C242   C     0.87379   0.39468   0.34475   0.00000  Uiso   1.00
C243   C     0.80785   0.29175   0.28262   0.00000  Uiso   1.00
C244   C     0.00776   0.70809   0.33842   0.00000  Uiso   1.00
C245   C     0.97876   0.79453   0.38142   0.00000  Uiso   1.00
C246   C     0.96201   0.91891   0.37423   0.00000  Uiso   1.00
C247   C     0.93617   0.98199   0.41857   0.00000  Uiso   1.00
C248   C     0.07471   0.65718   0.36120   0.00000  Uiso   1.00
C249   C     0.13865   0.66608   0.33701   0.00000  Uiso   1.00
C250   C     0.19358   0.61353   0.36431   0.00000  Uiso   1.00
C251   C     0.95877   0.59777   0.33535   0.00000  Uiso   1.00
C252   C     0.92524   0.55668   0.28942   0.00000  Uiso   1.00
C253   C     0.88257   0.45407   0.29495   0.00000  Uiso   1.00
H254   H     0.98481   0.55279   0.46864   0.00000  Uiso   1.00
H255   H     0.93739   0.75224   0.51395   0.00000  Uiso   1.00
H256   H     0.11400   0.49944   0.47672   0.00000  Uiso   1.00
H257   H     0.90062   0.39006   0.42914   0.00000  Uiso   1.00
H258   H     0.88871   0.99953   0.54227   0.00000  Uiso   1.00
H259   H     0.26109   0.46644   0.46377   0.00000  Uiso   1.00
H260   H     0.81114   0.23579   0.36343   0.00000  Uiso   1.00
H261   H     0.01459   0.75425   0.29972   0.00000  Uiso   1.00
H262   H     0.96880   0.96476   0.33576   0.00000  Uiso   1.00
H263   H     0.14541   0.71195   0.29854   0.00000  Uiso   1.00
H264   H     0.93203   0.60258   0.25096   0.00000  Uiso   1.00
H265   H     0.91421   0.17203   0.39765   0.00000  Uiso   1.00
H266   H     0.28659   0.63892   0.31915   0.00000  Uiso   1.00
H267   H     0.83664   0.40828   0.21881   0.00000  Uiso   1.00
O268   O     0.87083   0.22064   0.49672   0.00000  Uiso   1.00
O269   O     0.35937   0.52122   0.39373   0.00000  Uiso   1.00
O270   O     0.76905   0.21862   0.26209   0.00000  Uiso   1.00
N271   N     0.90098   0.01123   0.50328   0.00000  Uiso   1.00
N272   N     0.24914   0.51284   0.42989   0.00000  Uiso   1.00
N273   N     0.82849   0.29718   0.33608   0.00000  Uiso   1.00
N274   N     0.91470   0.10405   0.42546   0.00000  Uiso   1.00
N275   N     0.26286   0.60565   0.35207   0.00000  Uiso   1.00
N276   N     0.84221   0.38999   0.25827   0.00000  Uiso   1.00
C277   C     0.49163   0.90106   0.57006   0.00000  Uiso   1.00
C278   C     0.46999   0.76475   0.56887   0.00000  Uiso   1.00
C279   C     0.44416   0.70185   0.52452   0.00000  Uiso   1.00
C280   C     0.42739   0.57740   0.53163   0.00000  Uiso   1.00
C281   C     0.39249   0.37476   0.52221   0.00000  Uiso   1.00
C282   C     0.56595   0.90210   0.58909   0.00000  Uiso   1.00
C283   C     0.62080   0.95468   0.56174   0.00000  Uiso   1.00
C284   C     0.68480   0.94586   0.58589   0.00000  Uiso   1.00
C285   C     0.79887   0.95653   0.60788   0.00000  Uiso   1.00
C286   C     0.45001   0.96152   0.61494   0.00000  Uiso   1.00
C287   C     0.40739   0.06409   0.60933   0.00000  Uiso   1.00
C288   C     0.37379   0.10532   0.65525   0.00000  Uiso   1.00
C289   C     0.30785   0.20825   0.71738   0.00000  Uiso   1.00
C290   C     0.50776   0.79191   0.66158   0.00000  Uiso   1.00
C291   C     0.47876   0.70547   0.61858   0.00000  Uiso   1.00
C292   C     0.46201   0.58109   0.62577   0.00000  Uiso   1.00
C293   C     0.43617   0.51801   0.58143   0.00000  Uiso   1.00
C294   C     0.57471   0.84282   0.63880   0.00000  Uiso   1.00
C295   C     0.63865   0.83392   0.66299   0.00000  Uiso   1.00
C296   C     0.69358   0.88647   0.63569   0.00000  Uiso   1.00
C297   C     0.45877   0.90223   0.66465   0.00000  Uiso   1.00
C298   C     0.42524   0.94332   0.71058   0.00000  Uiso   1.00
C299   C     0.38257   0.04593   0.70505   0.00000  Uiso   1.00
H300   H     0.48481   0.94721   0.53136   0.00000  Uiso   1.00
H301   H     0.43739   0.74776   0.48605   0.00000  Uiso   1.00
H302   H     0.61400   0.00056   0.52328   0.00000  Uiso   1.00
H303   H     0.40062   0.10994   0.57086   0.00000  Uiso   1.00
H304   H     0.38871   0.50047   0.45773   0.00000  Uiso   1.00
H305   H     0.76109   0.03356   0.53623   0.00000  Uiso   1.00
H306   H     0.31114   0.26421   0.63657   0.00000  Uiso   1.00
H307   H     0.51459   0.74575   0.70028   0.00000  Uiso   1.00
H308   H     0.46880   0.53524   0.66424   0.00000  Uiso   1.00
H309   H     0.64541   0.78805   0.70146   0.00000  Uiso   1.00
H310   H     0.43203   0.89742   0.74904   0.00000  Uiso   1.00
H311   H     0.41421   0.32797   0.60235   0.00000  Uiso   1.00
H312   H     0.78659   0.86108   0.68085   0.00000  Uiso   1.00
H313   H     0.33664   0.09172   0.78119   0.00000  Uiso   1.00
O314   O     0.37083   0.27936   0.50328   0.00000  Uiso   1.00
O315   O     0.85937   0.97878   0.60627   0.00000  Uiso   1.00
O316   O     0.26905   0.28138   0.73791   0.00000  Uiso   1.00
N317   N     0.40098   0.48877   0.49672   0.00000  Uiso   1.00
N318   N     0.74914   0.98716   0.57011   0.00000  Uiso   1.00
N319   N     0.32849   0.20282   0.66392   0.00000  Uiso   1.00
N320   N     0.41470   0.39595   0.57454   0.00000  Uiso   1.00
N321   N     0.76286   0.89435   0.64793   0.00000  Uiso   1.00
N322   N     0.34221   0.11001   0.74173   0.00000  Uiso   1.00
C323   C     0.00837   0.59894   0.07006   0.00000  Uiso   1.00
C324   C     0.03001   0.73525   0.06887   0.00000  Uiso   1.00
C325   C     0.05584   0.79815   0.02452   0.00000  Uiso   1.00
C326   C     0.07261   0.92260   0.03163   0.00000  Uiso   1.00
C327   C     0.10751   0.12524   0.02221   0.00000  Uiso   1.00
C328   C     0.93405   0.59790   0.08909   0.00000  Uiso   1.00
C329   C     0.87920   0.54532   0.06174   0.00000  Uiso   1.00
C330   C     0.81520   0.55414   0.08589   0.00000  Uiso   1.00
C331   C     0.70113   0.54347   0.10788   0.00000  Uiso   1.00
C332   C     0.04999   0.53848   0.11494   0.00000  Uiso   1.00
C333   C     0.09261   0.43591   0.10933   0.00000  Uiso   1.00
C334   C     0.12621   0.39468   0.15525   0.00000  Uiso   1.00
C335   C     0.19215   0.29175   0.21738   0.00000  Uiso   1.00
C336   C     0.99224   0.70809   0.16158   0.00000  Uiso   1.00
C337   C     0.02124   0.79453   0.11858   0.00000  Uiso   1.00
C338   C     0.03799   0.91891   0.12577   0.00000  Uiso   1.00
C339   C     0.06383   0.98199   0.08143   0.00000  Uiso   1.00
C340   C     0.92529   0.65718   0.13880   0.00000  Uiso   1.00
C341   C     0.86135   0.66608   0.16299   0.00000  Uiso   1.00
C342   C     0.80642   0.61353   0.13569   0.00000  Uiso   1.00
C343   C     0.04123   0.59777   0.16465   0.00000  Uiso   1.00
C344   C     0.07476   0.55668   0.21058   0.00000  Uiso   1.00
C345   C     0.11743   0.45407   0.20505   0.00000  Uiso   1.00
H346   H     0.01519   0.55279   0.03136   0.00000  Uiso   1.00
H347   H     0.06261   0.75224   0.98605   0.00000  Uiso   1.00
H348   H     0.88600   0.49944   0.02328   0.00000  Uiso   1.00
H349   H     0.09938   0.39006   0.07086   0.00000  Uiso   1.00
H350   H     0.11129   0.99953   0.95773   0.00000  Uiso   1.00
H351   H     0.73891   0.46644   0.03623   0.00000  Uiso   1.00
H352   H     0.18886   0.23579   0.13657   0.00000  Uiso   1.00
H353   H     0.98541   0.75425   0.20028   0.00000  Uiso   1.00
H354   H     0.03120   0.96476   0.16424   0.00000  Uiso   1.00
H355   H     0.85459   0.71195   0.20146   0.00000  Uiso   1.00
H356   H     0.06797   0.60258   0.24904   0.00000  Uiso   1.00
H357   H     0.08579   0.17203   0.10235   0.00000  Uiso   1.00
H358   H     0.71341   0.63892   0.18085   0.00000  Uiso   1.00
H359   H     0.16336   0.40828   0.28119   0.00000  Uiso   1.00
O360   O     0.12917   0.22064   0.00328   0.00000  Uiso   1.00
O361   O     0.64063   0.52122   0.10627   0.00000  Uiso   1.00
O362   O     0.23095   0.21862   0.23791   0.00000  Uiso   1.00
N363   N     0.09902   0.01123   0.99672   0.00000  Uiso   1.00
N364   N     0.75086   0.51284   0.07011   0.00000  Uiso   1.00
N365   N     0.17151   0.29718   0.16392   0.00000  Uiso   1.00
N366   N     0.08530   0.10405   0.07454   0.00000  Uiso   1.00
N367   N     0.73714   0.60565   0.14793   0.00000  Uiso   1.00
N368   N     0.15779   0.38999   0.24173   0.00000  Uiso   1.00
