data_job_01361
_audit_creation_date              2018-12-19
_audit_creation_method            'Materials Studio'
_symmetry_space_group_name_H-M    'P1'
_symmetry_Int_Tables_number       1
_symmetry_cell_setting            triclinic
loop_
_symmetry_equiv_pos_as_xyz
  x,y,z
_cell_length_a                    23.9687
_cell_length_b                    26.8751
_cell_length_c                    11.3783
_cell_angle_alpha                 90.0000
_cell_angle_beta                  78.4026
_cell_angle_gamma                 90.0000
loop_
_atom_site_label
_atom_site_type_symbol
_atom_site_fract_x
_atom_site_fract_y
_atom_site_fract_z
_atom_site_U_iso_or_equiv
_atom_site_adp_type
_atom_site_occupancy
C1     C     0.71436   0.87775   0.35496   0.00000  Uiso   1.00
C2     C     0.70203   0.93036   0.31690   0.00000  Uiso   1.00
C3     C     0.71912   0.97402   0.36441   0.00000  Uiso   1.00
C4     C     0.70358   0.01842   0.31748   0.00000  Uiso   1.00
C5     C     0.68919   0.10001   0.27229   0.00000  Uiso   1.00
C6     C     0.65660   0.85232   0.39168   0.00000  Uiso   1.00
C7     C     0.63551   0.83036   0.50206   0.00000  Uiso   1.00
C8     C     0.58173   0.80906   0.51807   0.00000  Uiso   1.00
C9     C     0.49685   0.76946   0.58895   0.00000  Uiso   1.00
C10    C     0.74470   0.85140   0.24128   0.00000  Uiso   1.00
C11    C     0.79768   0.82866   0.22522   0.00000  Uiso   1.00
C12    C     0.81807   0.80657   0.11461   0.00000  Uiso   1.00
C13    C     0.86998   0.76554   0.95198   0.00000  Uiso   1.00
C14    C     0.65637   0.87896   0.18711   0.00000  Uiso   1.00
C15    C     0.67053   0.93102   0.22573   0.00000  Uiso   1.00
C16    C     0.65496   0.97536   0.17871   0.00000  Uiso   1.00
C17    C     0.67202   0.01908   0.22614   0.00000  Uiso   1.00
C18    C     0.62511   0.85298   0.30051   0.00000  Uiso   1.00
C19    C     0.57135   0.83170   0.31636   0.00000  Uiso   1.00
C20    C     0.55018   0.80972   0.42674   0.00000  Uiso   1.00
C21    C     0.71321   0.85206   0.15011   0.00000  Uiso   1.00
C22    C     0.73352   0.83000   0.03951   0.00000  Uiso   1.00
C23    C     0.78652   0.80723   0.02328   0.00000  Uiso   1.00
H24    H     0.73888   0.87724   0.42594   0.00000  Uiso   1.00
H25    H     0.74349   0.97350   0.43497   0.00000  Uiso   1.00
H26    H     0.65990   0.82986   0.57259   0.00000  Uiso   1.00
H27    H     0.82204   0.82816   0.29579   0.00000  Uiso   1.00
H28    H     0.73469   0.08051   0.40482   0.00000  Uiso   1.00
H29    H     0.55844   0.77762   0.69498   0.00000  Uiso   1.00
H30    H     0.90035   0.77403   0.11129   0.00000  Uiso   1.00
H31    H     0.63185   0.87948   0.11613   0.00000  Uiso   1.00
H32    H     0.63058   0.97586   0.10815   0.00000  Uiso   1.00
H33    H     0.54699   0.83222   0.24578   0.00000  Uiso   1.00
H34    H     0.70914   0.83052   0.96898   0.00000  Uiso   1.00
H35    H     0.64305   0.08242   0.13956   0.00000  Uiso   1.00
H36    H     0.46680   0.77953   0.42973   0.00000  Uiso   1.00
H37    H     0.80871   0.77594   0.84603   0.00000  Uiso   1.00
O38    O     0.68995   0.14483   0.27257   0.00000  Uiso   1.00
O39    O     0.45873   0.74745   0.65324   0.00000  Uiso   1.00
O40    O     0.90731   0.74273   0.88745   0.00000  Uiso   1.00
N41    N     0.71330   0.06773   0.34346   0.00000  Uiso   1.00
N42    N     0.54852   0.78456   0.61476   0.00000  Uiso   1.00
N43    N     0.86817   0.78119   0.06906   0.00000  Uiso   1.00
N44    N     0.66399   0.06876   0.20073   0.00000  Uiso   1.00
N45    N     0.49921   0.78559   0.47203   0.00000  Uiso   1.00
N46    N     0.81886   0.78222   0.92633   0.00000  Uiso   1.00
C47    C     0.21436   0.37775   0.35496   0.00000  Uiso   1.00
C48    C     0.20203   0.43036   0.31690   0.00000  Uiso   1.00
C49    C     0.21912   0.47402   0.36441   0.00000  Uiso   1.00
C50    C     0.20358   0.51842   0.31748   0.00000  Uiso   1.00
C51    C     0.18919   0.60001   0.27229   0.00000  Uiso   1.00
C52    C     0.15660   0.35232   0.39168   0.00000  Uiso   1.00
C53    C     0.13551   0.33036   0.50206   0.00000  Uiso   1.00
C54    C     0.08173   0.30906   0.51807   0.00000  Uiso   1.00
C55    C     0.99685   0.26946   0.58895   0.00000  Uiso   1.00
C56    C     0.24470   0.35140   0.24128   0.00000  Uiso   1.00
C57    C     0.29768   0.32866   0.22522   0.00000  Uiso   1.00
C58    C     0.31807   0.30657   0.11461   0.00000  Uiso   1.00
C59    C     0.36998   0.26554   0.95198   0.00000  Uiso   1.00
C60    C     0.15637   0.37896   0.18711   0.00000  Uiso   1.00
C61    C     0.17053   0.43102   0.22573   0.00000  Uiso   1.00
C62    C     0.15496   0.47536   0.17871   0.00000  Uiso   1.00
C63    C     0.17202   0.51908   0.22614   0.00000  Uiso   1.00
C64    C     0.12511   0.35298   0.30051   0.00000  Uiso   1.00
C65    C     0.07135   0.33170   0.31636   0.00000  Uiso   1.00
C66    C     0.05018   0.30972   0.42674   0.00000  Uiso   1.00
C67    C     0.21321   0.35206   0.15011   0.00000  Uiso   1.00
C68    C     0.23352   0.33000   0.03951   0.00000  Uiso   1.00
C69    C     0.28652   0.30723   0.02328   0.00000  Uiso   1.00
H70    H     0.23888   0.37724   0.42594   0.00000  Uiso   1.00
H71    H     0.24349   0.47350   0.43497   0.00000  Uiso   1.00
H72    H     0.15990   0.32986   0.57259   0.00000  Uiso   1.00
H73    H     0.32204   0.32816   0.29579   0.00000  Uiso   1.00
H74    H     0.23469   0.58051   0.40482   0.00000  Uiso   1.00
H75    H     0.05844   0.27762   0.69498   0.00000  Uiso   1.00
H76    H     0.40035   0.27403   0.11129   0.00000  Uiso   1.00
H77    H     0.13185   0.37948   0.11613   0.00000  Uiso   1.00
H78    H     0.13058   0.47586   0.10815   0.00000  Uiso   1.00
H79    H     0.04699   0.33222   0.24578   0.00000  Uiso   1.00
H80    H     0.20914   0.33052   0.96898   0.00000  Uiso   1.00
H81    H     0.14305   0.58242   0.13956   0.00000  Uiso   1.00
H82    H     0.96680   0.27953   0.42973   0.00000  Uiso   1.00
H83    H     0.30871   0.27594   0.84603   0.00000  Uiso   1.00
O84    O     0.18995   0.64483   0.27257   0.00000  Uiso   1.00
O85    O     0.95873   0.24745   0.65324   0.00000  Uiso   1.00
O86    O     0.40731   0.24273   0.88745   0.00000  Uiso   1.00
N87    N     0.21330   0.56773   0.34346   0.00000  Uiso   1.00
N88    N     0.04852   0.28456   0.61476   0.00000  Uiso   1.00
N89    N     0.36817   0.28119   0.06906   0.00000  Uiso   1.00
N90    N     0.16399   0.56876   0.20073   0.00000  Uiso   1.00
N91    N     0.99921   0.28559   0.47203   0.00000  Uiso   1.00
N92    N     0.31886   0.28222   0.92633   0.00000  Uiso   1.00
C93    C     0.28564   0.87775   0.14504   0.00000  Uiso   1.00
C94    C     0.29797   0.93036   0.18310   0.00000  Uiso   1.00
C95    C     0.28088   0.97402   0.13559   0.00000  Uiso   1.00
C96    C     0.29642   0.01842   0.18252   0.00000  Uiso   1.00
C97    C     0.31081   0.10001   0.22771   0.00000  Uiso   1.00
C98    C     0.34340   0.85232   0.10832   0.00000  Uiso   1.00
C99    C     0.36449   0.83036   0.99794   0.00000  Uiso   1.00
C100   C     0.41827   0.80906   0.98193   0.00000  Uiso   1.00
C101   C     0.50315   0.76946   0.91105   0.00000  Uiso   1.00
C102   C     0.25530   0.85140   0.25872   0.00000  Uiso   1.00
C103   C     0.20232   0.82866   0.27478   0.00000  Uiso   1.00
C104   C     0.18193   0.80657   0.38539   0.00000  Uiso   1.00
C105   C     0.13002   0.76554   0.54802   0.00000  Uiso   1.00
C106   C     0.34363   0.87896   0.31289   0.00000  Uiso   1.00
C107   C     0.32947   0.93102   0.27427   0.00000  Uiso   1.00
C108   C     0.34504   0.97536   0.32129   0.00000  Uiso   1.00
C109   C     0.32798   0.01908   0.27386   0.00000  Uiso   1.00
C110   C     0.37489   0.85298   0.19949   0.00000  Uiso   1.00
C111   C     0.42865   0.83170   0.18364   0.00000  Uiso   1.00
C112   C     0.44982   0.80972   0.07326   0.00000  Uiso   1.00
C113   C     0.28679   0.85206   0.34989   0.00000  Uiso   1.00
C114   C     0.26648   0.83000   0.46049   0.00000  Uiso   1.00
C115   C     0.21348   0.80723   0.47672   0.00000  Uiso   1.00
H116   H     0.26112   0.87724   0.07406   0.00000  Uiso   1.00
H117   H     0.25651   0.97350   0.06503   0.00000  Uiso   1.00
H118   H     0.34010   0.82986   0.92741   0.00000  Uiso   1.00
H119   H     0.17796   0.82816   0.20421   0.00000  Uiso   1.00
H120   H     0.26531   0.08051   0.09518   0.00000  Uiso   1.00
H121   H     0.44156   0.77762   0.80502   0.00000  Uiso   1.00
H122   H     0.09965   0.77403   0.38871   0.00000  Uiso   1.00
H123   H     0.36815   0.87948   0.38387   0.00000  Uiso   1.00
H124   H     0.36942   0.97586   0.39185   0.00000  Uiso   1.00
H125   H     0.45301   0.83222   0.25422   0.00000  Uiso   1.00
H126   H     0.29086   0.83052   0.53102   0.00000  Uiso   1.00
H127   H     0.35695   0.08242   0.36044   0.00000  Uiso   1.00
H128   H     0.53320   0.77953   0.07027   0.00000  Uiso   1.00
H129   H     0.19129   0.77594   0.65397   0.00000  Uiso   1.00
O130   O     0.31005   0.14483   0.22743   0.00000  Uiso   1.00
O131   O     0.54127   0.74745   0.84676   0.00000  Uiso   1.00
O132   O     0.09269   0.74273   0.61255   0.00000  Uiso   1.00
N133   N     0.28670   0.06773   0.15654   0.00000  Uiso   1.00
N134   N     0.45148   0.78456   0.88524   0.00000  Uiso   1.00
N135   N     0.13183   0.78119   0.43094   0.00000  Uiso   1.00
N136   N     0.33601   0.06876   0.29927   0.00000  Uiso   1.00
N137   N     0.50079   0.78559   0.02797   0.00000  Uiso   1.00
N138   N     0.18114   0.78222   0.57367   0.00000  Uiso   1.00
C139   C     0.78564   0.37775   0.14504   0.00000  Uiso   1.00
C140   C     0.79797   0.43036   0.18310   0.00000  Uiso   1.00
C141   C     0.78088   0.47402   0.13559   0.00000  Uiso   1.00
C142   C     0.79642   0.51842   0.18252   0.00000  Uiso   1.00
C143   C     0.81081   0.60001   0.22771   0.00000  Uiso   1.00
C144   C     0.84340   0.35232   0.10832   0.00000  Uiso   1.00
C145   C     0.86449   0.33036   0.99794   0.00000  Uiso   1.00
C146   C     0.91827   0.30906   0.98193   0.00000  Uiso   1.00
C147   C     0.00315   0.26946   0.91105   0.00000  Uiso   1.00
C148   C     0.75530   0.35140   0.25872   0.00000  Uiso   1.00
C149   C     0.70232   0.32866   0.27478   0.00000  Uiso   1.00
C150   C     0.68193   0.30657   0.38539   0.00000  Uiso   1.00
C151   C     0.63002   0.26554   0.54802   0.00000  Uiso   1.00
C152   C     0.84363   0.37896   0.31289   0.00000  Uiso   1.00
C153   C     0.82947   0.43102   0.27427   0.00000  Uiso   1.00
C154   C     0.84504   0.47536   0.32129   0.00000  Uiso   1.00
C155   C     0.82798   0.51908   0.27386   0.00000  Uiso   1.00
C156   C     0.87489   0.35298   0.19949   0.00000  Uiso   1.00
C157   C     0.92865   0.33170   0.18364   0.00000  Uiso   1.00
C158   C     0.94982   0.30972   0.07326   0.00000  Uiso   1.00
C159   C     0.78679   0.35206   0.34989   0.00000  Uiso   1.00
C160   C     0.76648   0.33000   0.46049   0.00000  Uiso   1.00
C161   C     0.71348   0.30723   0.47672   0.00000  Uiso   1.00
H162   H     0.76112   0.37724   0.07406   0.00000  Uiso   1.00
H163   H     0.75651   0.47350   0.06503   0.00000  Uiso   1.00
H164   H     0.84010   0.32986   0.92741   0.00000  Uiso   1.00
H165   H     0.67796   0.32816   0.20421   0.00000  Uiso   1.00
H166   H     0.76531   0.58051   0.09518   0.00000  Uiso   1.00
H167   H     0.94156   0.27762   0.80502   0.00000  Uiso   1.00
H168   H     0.59965   0.27403   0.38871   0.00000  Uiso   1.00
H169   H     0.86815   0.37948   0.38387   0.00000  Uiso   1.00
H170   H     0.86942   0.47586   0.39185   0.00000  Uiso   1.00
H171   H     0.95301   0.33222   0.25422   0.00000  Uiso   1.00
H172   H     0.79086   0.33052   0.53102   0.00000  Uiso   1.00
H173   H     0.85695   0.58242   0.36044   0.00000  Uiso   1.00
H174   H     0.03320   0.27953   0.07027   0.00000  Uiso   1.00
H175   H     0.69129   0.27594   0.65397   0.00000  Uiso   1.00
O176   O     0.81005   0.64483   0.22743   0.00000  Uiso   1.00
O177   O     0.04127   0.24745   0.84676   0.00000  Uiso   1.00
O178   O     0.59269   0.24273   0.61255   0.00000  Uiso   1.00
N179   N     0.78670   0.56773   0.15654   0.00000  Uiso   1.00
N180   N     0.95148   0.28456   0.88524   0.00000  Uiso   1.00
N181   N     0.63183   0.28119   0.43094   0.00000  Uiso   1.00
N182   N     0.83601   0.56876   0.29927   0.00000  Uiso   1.00
N183   N     0.00079   0.28559   0.02797   0.00000  Uiso   1.00
N184   N     0.68114   0.28222   0.57367   0.00000  Uiso   1.00
C185   C     0.28564   0.12225   0.64504   0.00000  Uiso   1.00
C186   C     0.29797   0.06964   0.68310   0.00000  Uiso   1.00
C187   C     0.28088   0.02598   0.63559   0.00000  Uiso   1.00
C188   C     0.29642   0.98158   0.68252   0.00000  Uiso   1.00
C189   C     0.31081   0.89999   0.72771   0.00000  Uiso   1.00
C190   C     0.34340   0.14768   0.60832   0.00000  Uiso   1.00
C191   C     0.36449   0.16964   0.49794   0.00000  Uiso   1.00
C192   C     0.41827   0.19094   0.48193   0.00000  Uiso   1.00
C193   C     0.50315   0.23054   0.41105   0.00000  Uiso   1.00
C194   C     0.25530   0.14860   0.75872   0.00000  Uiso   1.00
C195   C     0.20232   0.17134   0.77478   0.00000  Uiso   1.00
C196   C     0.18193   0.19343   0.88539   0.00000  Uiso   1.00
C197   C     0.13002   0.23446   0.04802   0.00000  Uiso   1.00
C198   C     0.34363   0.12104   0.81289   0.00000  Uiso   1.00
C199   C     0.32947   0.06898   0.77427   0.00000  Uiso   1.00
C200   C     0.34504   0.02464   0.82129   0.00000  Uiso   1.00
C201   C     0.32798   0.98092   0.77386   0.00000  Uiso   1.00
C202   C     0.37489   0.14702   0.69949   0.00000  Uiso   1.00
C203   C     0.42865   0.16830   0.68364   0.00000  Uiso   1.00
C204   C     0.44982   0.19028   0.57326   0.00000  Uiso   1.00
C205   C     0.28679   0.14794   0.84989   0.00000  Uiso   1.00
C206   C     0.26648   0.17000   0.96049   0.00000  Uiso   1.00
C207   C     0.21348   0.19277   0.97672   0.00000  Uiso   1.00
H208   H     0.26112   0.12276   0.57406   0.00000  Uiso   1.00
H209   H     0.25651   0.02650   0.56503   0.00000  Uiso   1.00
H210   H     0.34010   0.17014   0.42741   0.00000  Uiso   1.00
H211   H     0.17796   0.17184   0.70421   0.00000  Uiso   1.00
H212   H     0.26531   0.91949   0.59518   0.00000  Uiso   1.00
H213   H     0.44156   0.22238   0.30502   0.00000  Uiso   1.00
H214   H     0.09965   0.22597   0.88871   0.00000  Uiso   1.00
H215   H     0.36815   0.12052   0.88387   0.00000  Uiso   1.00
H216   H     0.36942   0.02414   0.89185   0.00000  Uiso   1.00
H217   H     0.45301   0.16778   0.75422   0.00000  Uiso   1.00
H218   H     0.29086   0.16948   0.03102   0.00000  Uiso   1.00
H219   H     0.35695   0.91758   0.86044   0.00000  Uiso   1.00
H220   H     0.53320   0.22047   0.57027   0.00000  Uiso   1.00
H221   H     0.19129   0.22406   0.15397   0.00000  Uiso   1.00
O222   O     0.31005   0.85517   0.72743   0.00000  Uiso   1.00
O223   O     0.54127   0.25255   0.34676   0.00000  Uiso   1.00
O224   O     0.09269   0.25727   0.11255   0.00000  Uiso   1.00
N225   N     0.28670   0.93227   0.65654   0.00000  Uiso   1.00
N226   N     0.45148   0.21544   0.38524   0.00000  Uiso   1.00
N227   N     0.13183   0.21881   0.93094   0.00000  Uiso   1.00
N228   N     0.33601   0.93124   0.79927   0.00000  Uiso   1.00
N229   N     0.50079   0.21441   0.52797   0.00000  Uiso   1.00
N230   N     0.18114   0.21778   0.07367   0.00000  Uiso   1.00
C231   C     0.78564   0.62225   0.64504   0.00000  Uiso   1.00
C232   C     0.79797   0.56964   0.68310   0.00000  Uiso   1.00
C233   C     0.78088   0.52598   0.63559   0.00000  Uiso   1.00
C234   C     0.79642   0.48158   0.68252   0.00000  Uiso   1.00
C235   C     0.81081   0.39999   0.72771   0.00000  Uiso   1.00
C236   C     0.84340   0.64768   0.60832   0.00000  Uiso   1.00
C237   C     0.86449   0.66964   0.49794   0.00000  Uiso   1.00
C238   C     0.91827   0.69094   0.48193   0.00000  Uiso   1.00
C239   C     0.00315   0.73054   0.41105   0.00000  Uiso   1.00
C240   C     0.75530   0.64860   0.75872   0.00000  Uiso   1.00
C241   C     0.70232   0.67134   0.77478   0.00000  Uiso   1.00
C242   C     0.68193   0.69343   0.88539   0.00000  Uiso   1.00
C243   C     0.63002   0.73446   0.04802   0.00000  Uiso   1.00
C244   C     0.84363   0.62104   0.81289   0.00000  Uiso   1.00
C245   C     0.82947   0.56898   0.77427   0.00000  Uiso   1.00
C246   C     0.84504   0.52464   0.82129   0.00000  Uiso   1.00
C247   C     0.82798   0.48092   0.77386   0.00000  Uiso   1.00
C248   C     0.87489   0.64702   0.69949   0.00000  Uiso   1.00
C249   C     0.92865   0.66830   0.68364   0.00000  Uiso   1.00
C250   C     0.94982   0.69028   0.57326   0.00000  Uiso   1.00
C251   C     0.78679   0.64794   0.84989   0.00000  Uiso   1.00
C252   C     0.76648   0.67000   0.96049   0.00000  Uiso   1.00
C253   C     0.71348   0.69277   0.97672   0.00000  Uiso   1.00
H254   H     0.76112   0.62276   0.57406   0.00000  Uiso   1.00
H255   H     0.75651   0.52650   0.56503   0.00000  Uiso   1.00
H256   H     0.84010   0.67014   0.42741   0.00000  Uiso   1.00
H257   H     0.67796   0.67184   0.70421   0.00000  Uiso   1.00
H258   H     0.76531   0.41949   0.59518   0.00000  Uiso   1.00
H259   H     0.94156   0.72238   0.30502   0.00000  Uiso   1.00
H260   H     0.59965   0.72597   0.88871   0.00000  Uiso   1.00
H261   H     0.86815   0.62052   0.88387   0.00000  Uiso   1.00
H262   H     0.86942   0.52414   0.89185   0.00000  Uiso   1.00
H263   H     0.95301   0.66778   0.75422   0.00000  Uiso   1.00
H264   H     0.79086   0.66948   0.03102   0.00000  Uiso   1.00
H265   H     0.85695   0.41758   0.86044   0.00000  Uiso   1.00
H266   H     0.03320   0.72047   0.57027   0.00000  Uiso   1.00
H267   H     0.69129   0.72406   0.15397   0.00000  Uiso   1.00
O268   O     0.81005   0.35517   0.72743   0.00000  Uiso   1.00
O269   O     0.04127   0.75255   0.34676   0.00000  Uiso   1.00
O270   O     0.59269   0.75727   0.11255   0.00000  Uiso   1.00
N271   N     0.78670   0.43227   0.65654   0.00000  Uiso   1.00
N272   N     0.95148   0.71544   0.38524   0.00000  Uiso   1.00
N273   N     0.63183   0.71881   0.93094   0.00000  Uiso   1.00
N274   N     0.83601   0.43124   0.79927   0.00000  Uiso   1.00
N275   N     0.00079   0.71441   0.52797   0.00000  Uiso   1.00
N276   N     0.68114   0.71778   0.07367   0.00000  Uiso   1.00
C277   C     0.71436   0.12225   0.85496   0.00000  Uiso   1.00
C278   C     0.70203   0.06964   0.81690   0.00000  Uiso   1.00
C279   C     0.71912   0.02598   0.86441   0.00000  Uiso   1.00
C280   C     0.70358   0.98158   0.81748   0.00000  Uiso   1.00
C281   C     0.68919   0.89999   0.77229   0.00000  Uiso   1.00
C282   C     0.65660   0.14768   0.89168   0.00000  Uiso   1.00
C283   C     0.63551   0.16964   0.00206   0.00000  Uiso   1.00
C284   C     0.58173   0.19094   0.01807   0.00000  Uiso   1.00
C285   C     0.49685   0.23054   0.08895   0.00000  Uiso   1.00
C286   C     0.74470   0.14860   0.74128   0.00000  Uiso   1.00
C287   C     0.79768   0.17134   0.72522   0.00000  Uiso   1.00
C288   C     0.81807   0.19343   0.61461   0.00000  Uiso   1.00
C289   C     0.86998   0.23446   0.45198   0.00000  Uiso   1.00
C290   C     0.65637   0.12104   0.68711   0.00000  Uiso   1.00
C291   C     0.67053   0.06898   0.72573   0.00000  Uiso   1.00
C292   C     0.65496   0.02464   0.67871   0.00000  Uiso   1.00
C293   C     0.67202   0.98092   0.72614   0.00000  Uiso   1.00
C294   C     0.62511   0.14702   0.80051   0.00000  Uiso   1.00
C295   C     0.57135   0.16830   0.81636   0.00000  Uiso   1.00
C296   C     0.55018   0.19028   0.92674   0.00000  Uiso   1.00
C297   C     0.71321   0.14794   0.65011   0.00000  Uiso   1.00
C298   C     0.73352   0.17000   0.53951   0.00000  Uiso   1.00
C299   C     0.78652   0.19277   0.52328   0.00000  Uiso   1.00
H300   H     0.73888   0.12276   0.92594   0.00000  Uiso   1.00
H301   H     0.74349   0.02650   0.93497   0.00000  Uiso   1.00
H302   H     0.65990   0.17014   0.07259   0.00000  Uiso   1.00
H303   H     0.82204   0.17184   0.79579   0.00000  Uiso   1.00
H304   H     0.73469   0.91949   0.90482   0.00000  Uiso   1.00
H305   H     0.55844   0.22238   0.19498   0.00000  Uiso   1.00
H306   H     0.90035   0.22597   0.61129   0.00000  Uiso   1.00
H307   H     0.63185   0.12052   0.61613   0.00000  Uiso   1.00
H308   H     0.63058   0.02414   0.60815   0.00000  Uiso   1.00
H309   H     0.54699   0.16778   0.74578   0.00000  Uiso   1.00
H310   H     0.70914   0.16948   0.46898   0.00000  Uiso   1.00
H311   H     0.64305   0.91758   0.63956   0.00000  Uiso   1.00
H312   H     0.46680   0.22047   0.92973   0.00000  Uiso   1.00
H313   H     0.80871   0.22406   0.34603   0.00000  Uiso   1.00
O314   O     0.68995   0.85517   0.77257   0.00000  Uiso   1.00
O315   O     0.45873   0.25255   0.15324   0.00000  Uiso   1.00
O316   O     0.90731   0.25727   0.38745   0.00000  Uiso   1.00
N317   N     0.71330   0.93227   0.84346   0.00000  Uiso   1.00
N318   N     0.54852   0.21544   0.11476   0.00000  Uiso   1.00
N319   N     0.86817   0.21881   0.56906   0.00000  Uiso   1.00
N320   N     0.66399   0.93124   0.70073   0.00000  Uiso   1.00
N321   N     0.49921   0.21441   0.97203   0.00000  Uiso   1.00
N322   N     0.81886   0.21778   0.42633   0.00000  Uiso   1.00
C323   C     0.21436   0.62225   0.85496   0.00000  Uiso   1.00
C324   C     0.20203   0.56964   0.81690   0.00000  Uiso   1.00
C325   C     0.21912   0.52598   0.86441   0.00000  Uiso   1.00
C326   C     0.20358   0.48158   0.81748   0.00000  Uiso   1.00
C327   C     0.18919   0.39999   0.77229   0.00000  Uiso   1.00
C328   C     0.15660   0.64768   0.89168   0.00000  Uiso   1.00
C329   C     0.13551   0.66964   0.00206   0.00000  Uiso   1.00
C330   C     0.08173   0.69094   0.01807   0.00000  Uiso   1.00
C331   C     0.99685   0.73054   0.08895   0.00000  Uiso   1.00
C332   C     0.24470   0.64860   0.74128   0.00000  Uiso   1.00
C333   C     0.29768   0.67134   0.72522   0.00000  Uiso   1.00
C334   C     0.31807   0.69343   0.61461   0.00000  Uiso   1.00
C335   C     0.36998   0.73446   0.45198   0.00000  Uiso   1.00
C336   C     0.15637   0.62104   0.68711   0.00000  Uiso   1.00
C337   C     0.17053   0.56898   0.72573   0.00000  Uiso   1.00
C338   C     0.15496   0.52464   0.67871   0.00000  Uiso   1.00
C339   C     0.17202   0.48092   0.72614   0.00000  Uiso   1.00
C340   C     0.12511   0.64702   0.80051   0.00000  Uiso   1.00
C341   C     0.07135   0.66830   0.81636   0.00000  Uiso   1.00
C342   C     0.05018   0.69028   0.92674   0.00000  Uiso   1.00
C343   C     0.21321   0.64794   0.65011   0.00000  Uiso   1.00
C344   C     0.23352   0.67000   0.53951   0.00000  Uiso   1.00
C345   C     0.28652   0.69277   0.52328   0.00000  Uiso   1.00
H346   H     0.23888   0.62276   0.92594   0.00000  Uiso   1.00
H347   H     0.24349   0.52650   0.93497   0.00000  Uiso   1.00
H348   H     0.15990   0.67014   0.07259   0.00000  Uiso   1.00
H349   H     0.32204   0.67184   0.79579   0.00000  Uiso   1.00
H350   H     0.23469   0.41949   0.90482   0.00000  Uiso   1.00
H351   H     0.05844   0.72238   0.19498   0.00000  Uiso   1.00
H352   H     0.40035   0.72597   0.61129   0.00000  Uiso   1.00
H353   H     0.13185   0.62052   0.61613   0.00000  Uiso   1.00
H354   H     0.13058   0.52414   0.60815   0.00000  Uiso   1.00
H355   H     0.04699   0.66778   0.74578   0.00000  Uiso   1.00
H356   H     0.20914   0.66948   0.46898   0.00000  Uiso   1.00
H357   H     0.14305   0.41758   0.63956   0.00000  Uiso   1.00
H358   H     0.96680   0.72047   0.92973   0.00000  Uiso   1.00
H359   H     0.30871   0.72406   0.34603   0.00000  Uiso   1.00
O360   O     0.18995   0.35517   0.77257   0.00000  Uiso   1.00
O361   O     0.95873   0.75255   0.15324   0.00000  Uiso   1.00
O362   O     0.40731   0.75727   0.38745   0.00000  Uiso   1.00
N363   N     0.21330   0.43227   0.84346   0.00000  Uiso   1.00
N364   N     0.04852   0.71544   0.11476   0.00000  Uiso   1.00
N365   N     0.36817   0.71881   0.56906   0.00000  Uiso   1.00
N366   N     0.16399   0.43124   0.70073   0.00000  Uiso   1.00
N367   N     0.99921   0.71441   0.97203   0.00000  Uiso   1.00
N368   N     0.31886   0.71778   0.42633   0.00000  Uiso   1.00
