data_job_05321
_audit_creation_date              2018-12-19
_audit_creation_method            'Materials Studio'
_symmetry_space_group_name_H-M    'P1'
_symmetry_Int_Tables_number       1
_symmetry_cell_setting            triclinic
loop_
_symmetry_equiv_pos_as_xyz
  x,y,z
_cell_length_a                    23.3454
_cell_length_b                    7.1597
_cell_length_c                    33.3956
_cell_angle_alpha                 90.0000
_cell_angle_beta                  90.0000
_cell_angle_gamma                 90.0000
loop_
_atom_site_label
_atom_site_type_symbol
_atom_site_fract_x
_atom_site_fract_y
_atom_site_fract_z
_atom_site_U_iso_or_equiv
_atom_site_adp_type
_atom_site_occupancy
C1     C     0.04847   0.49436   0.88979   0.00000  Uiso   1.00
C2     C     0.03340   0.36782   0.92497   0.00000  Uiso   1.00
C3     C     0.02245   0.42630   0.96385   0.00000  Uiso   1.00
C4     C     0.00945   0.28886   0.99173   0.00000  Uiso   1.00
C5     C     0.98638   0.12112   0.04799   0.00000  Uiso   1.00
C6     C     0.10543   0.42288   0.87353   0.00000  Uiso   1.00
C7     C     0.15505   0.52769   0.86914   0.00000  Uiso   1.00
C8     C     0.20269   0.43659   0.85371   0.00000  Uiso   1.00
C9     C     0.29144   0.35438   0.83007   0.00000  Uiso   1.00
C10    C     0.00410   0.45383   0.85743   0.00000  Uiso   1.00
C11    C     0.96851   0.58465   0.83949   0.00000  Uiso   1.00
C12    C     0.93084   0.51961   0.81050   0.00000  Uiso   1.00
C13    C     0.86225   0.48545   0.76186   0.00000  Uiso   1.00
C14    C     0.04485   0.14625   0.87018   0.00000  Uiso   1.00
C15    C     0.03143   0.17874   0.91432   0.00000  Uiso   1.00
C16    C     0.01844   0.04116   0.94215   0.00000  Uiso   1.00
C17    C     0.00748   0.09944   0.98106   0.00000  Uiso   1.00
C18    C     0.10347   0.23381   0.86288   0.00000  Uiso   1.00
C19    C     0.15104   0.14254   0.84745   0.00000  Uiso   1.00
C20    C     0.20072   0.24717   0.84304   0.00000  Uiso   1.00
C21    C     0.00213   0.26474   0.84678   0.00000  Uiso   1.00
C22    C     0.96451   0.19950   0.81780   0.00000  Uiso   1.00
C23    C     0.92887   0.33019   0.79983   0.00000  Uiso   1.00
H24    H     0.05000   0.64157   0.89808   0.00000  Uiso   1.00
H25    H     0.02398   0.57265   0.97208   0.00000  Uiso   1.00
H26    H     0.15656   0.67401   0.87738   0.00000  Uiso   1.00
H27    H     0.97005   0.73096   0.84774   0.00000  Uiso   1.00
H28    H     0.99428   0.41284   0.04942   0.00000  Uiso   1.00
H29    H     0.27382   0.62659   0.84974   0.00000  Uiso   1.00
H30    H     0.88054   0.74668   0.78723   0.00000  Uiso   1.00
H31    H     0.04332   0.99904   0.86189   0.00000  Uiso   1.00
H32    H     0.01692   0.89485   0.93390   0.00000  Uiso   1.00
H33    H     0.14950   0.99622   0.83921   0.00000  Uiso   1.00
H34    H     0.96300   0.05317   0.80957   0.00000  Uiso   1.00
H35    H     0.98856   0.86271   0.01844   0.00000  Uiso   1.00
H36    H     0.26810   0.07647   0.81876   0.00000  Uiso   1.00
H37    H     0.87481   0.19656   0.75625   0.00000  Uiso   1.00
O38    O     0.97420   0.08083   0.08196   0.00000  Uiso   1.00
O39    O     0.34094   0.36127   0.81998   0.00000  Uiso   1.00
O40    O     0.82496   0.51883   0.73797   0.00000  Uiso   1.00
N41    N     0.99655   0.29767   0.03225   0.00000  Uiso   1.00
N42    N     0.25790   0.49750   0.84556   0.00000  Uiso   1.00
N43    N     0.89022   0.60979   0.78711   0.00000  Uiso   1.00
N44    N     0.99347   0.00165   0.01558   0.00000  Uiso   1.00
N45    N     0.25482   0.20149   0.82889   0.00000  Uiso   1.00
N46    N     0.88714   0.31377   0.77044   0.00000  Uiso   1.00
C47    C     0.10058   0.49261   0.11966   0.00000  Uiso   1.00
C48    C     0.11378   0.61926   0.08413   0.00000  Uiso   1.00
C49    C     0.12300   0.56080   0.04504   0.00000  Uiso   1.00
C50    C     0.13446   0.69836   0.01685   0.00000  Uiso   1.00
C51    C     0.15461   0.86627   0.96007   0.00000  Uiso   1.00
C52    C     0.04428   0.56314   0.13721   0.00000  Uiso   1.00
C53    C     0.99508   0.45748   0.14274   0.00000  Uiso   1.00
C54    C     0.94803   0.54779   0.15924   0.00000  Uiso   1.00
C55    C     0.86029   0.62853   0.18488   0.00000  Uiso   1.00
C56    C     0.14637   0.53407   0.15099   0.00000  Uiso   1.00
C57    C     0.18299   0.40396   0.16812   0.00000  Uiso   1.00
C58    C     0.22189   0.46979   0.19623   0.00000  Uiso   1.00
C59    C     0.29266   0.50538   0.24327   0.00000  Uiso   1.00
C60    C     0.10453   0.84086   0.13912   0.00000  Uiso   1.00
C61    C     0.11593   0.80842   0.09470   0.00000  Uiso   1.00
C62    C     0.12737   0.94611   0.06657   0.00000  Uiso   1.00
C63    C     0.13661   0.88786   0.02744   0.00000  Uiso   1.00
C64    C     0.04643   0.75229   0.14777   0.00000  Uiso   1.00
C65    C     0.99945   0.84278   0.16427   0.00000  Uiso   1.00
C66    C     0.95018   0.73729   0.16983   0.00000  Uiso   1.00
C67    C     0.14852   0.72323   0.16156   0.00000  Uiso   1.00
C68    C     0.18736   0.78927   0.18965   0.00000  Uiso   1.00
C69    C     0.22404   0.65929   0.20682   0.00000  Uiso   1.00
H70    H     0.09890   0.34534   0.11144   0.00000  Uiso   1.00
H71    H     0.12133   0.41440   0.03687   0.00000  Uiso   1.00
H72    H     0.99343   0.31110   0.13456   0.00000  Uiso   1.00
H73    H     0.18132   0.25759   0.15994   0.00000  Uiso   1.00
H74    H     0.14713   0.57440   0.95886   0.00000  Uiso   1.00
H75    H     0.87744   0.35655   0.16486   0.00000  Uiso   1.00
H76    H     0.27364   0.24372   0.21837   0.00000  Uiso   1.00
H77    H     0.10620   0.98813   0.14735   0.00000  Uiso   1.00
H78    H     0.12903   0.09248   0.07475   0.00000  Uiso   1.00
H79    H     0.00112   0.98916   0.17244   0.00000  Uiso   1.00
H80    H     0.18901   0.93566   0.19782   0.00000  Uiso   1.00
H81    H     0.15337   0.12475   0.98961   0.00000  Uiso   1.00
H82    H     0.88368   0.90690   0.19561   0.00000  Uiso   1.00
H83    H     0.27988   0.79407   0.24911   0.00000  Uiso   1.00
O84    O     0.16512   0.90662   0.92583   0.00000  Uiso   1.00
O85    O     0.81130   0.62080   0.19610   0.00000  Uiso   1.00
O86    O     0.33110   0.47277   0.26629   0.00000  Uiso   1.00
N87    N     0.14548   0.68960   0.97606   0.00000  Uiso   1.00
N88    N     0.89333   0.48593   0.16865   0.00000  Uiso   1.00
N89    N     0.26373   0.38043   0.21868   0.00000  Uiso   1.00
N90    N     0.14884   0.98574   0.99260   0.00000  Uiso   1.00
N91    N     0.89669   0.78207   0.18520   0.00000  Uiso   1.00
N92    N     0.26709   0.67657   0.23523   0.00000  Uiso   1.00
C93    C     0.45153   0.50564   0.38979   0.00000  Uiso   1.00
C94    C     0.46660   0.63218   0.42497   0.00000  Uiso   1.00
C95    C     0.47755   0.57370   0.46385   0.00000  Uiso   1.00
C96    C     0.49055   0.71114   0.49173   0.00000  Uiso   1.00
C97    C     0.51362   0.87888   0.54799   0.00000  Uiso   1.00
C98    C     0.39457   0.57712   0.37353   0.00000  Uiso   1.00
C99    C     0.34495   0.47231   0.36914   0.00000  Uiso   1.00
C100   C     0.29731   0.56341   0.35371   0.00000  Uiso   1.00
C101   C     0.20856   0.64562   0.33007   0.00000  Uiso   1.00
C102   C     0.49590   0.54617   0.35743   0.00000  Uiso   1.00
C103   C     0.53149   0.41535   0.33949   0.00000  Uiso   1.00
C104   C     0.56916   0.48039   0.31050   0.00000  Uiso   1.00
C105   C     0.63775   0.51455   0.26186   0.00000  Uiso   1.00
C106   C     0.45515   0.85375   0.37018   0.00000  Uiso   1.00
C107   C     0.46857   0.82126   0.41432   0.00000  Uiso   1.00
C108   C     0.48156   0.95884   0.44215   0.00000  Uiso   1.00
C109   C     0.49252   0.90056   0.48106   0.00000  Uiso   1.00
C110   C     0.39653   0.76619   0.36288   0.00000  Uiso   1.00
C111   C     0.34896   0.85746   0.34745   0.00000  Uiso   1.00
C112   C     0.29928   0.75283   0.34304   0.00000  Uiso   1.00
C113   C     0.49787   0.73526   0.34678   0.00000  Uiso   1.00
C114   C     0.53549   0.80050   0.31780   0.00000  Uiso   1.00
C115   C     0.57113   0.66981   0.29983   0.00000  Uiso   1.00
H116   H     0.45000   0.35843   0.39808   0.00000  Uiso   1.00
H117   H     0.47602   0.42735   0.47208   0.00000  Uiso   1.00
H118   H     0.34344   0.32599   0.37738   0.00000  Uiso   1.00
H119   H     0.52995   0.26904   0.34774   0.00000  Uiso   1.00
H120   H     0.50572   0.58716   0.54942   0.00000  Uiso   1.00
H121   H     0.22618   0.37341   0.34974   0.00000  Uiso   1.00
H122   H     0.61946   0.25332   0.28723   0.00000  Uiso   1.00
H123   H     0.45668   0.00096   0.36189   0.00000  Uiso   1.00
H124   H     0.48308   0.10515   0.43390   0.00000  Uiso   1.00
H125   H     0.35050   0.00378   0.33921   0.00000  Uiso   1.00
H126   H     0.53700   0.94683   0.30957   0.00000  Uiso   1.00
H127   H     0.51144   0.13729   0.51844   0.00000  Uiso   1.00
H128   H     0.23190   0.92353   0.31876   0.00000  Uiso   1.00
H129   H     0.62519   0.80344   0.25625   0.00000  Uiso   1.00
O130   O     0.52580   0.91917   0.58196   0.00000  Uiso   1.00
O131   O     0.15906   0.63873   0.31998   0.00000  Uiso   1.00
O132   O     0.67504   0.48117   0.23797   0.00000  Uiso   1.00
N133   N     0.50345   0.70233   0.53225   0.00000  Uiso   1.00
N134   N     0.24210   0.50250   0.34556   0.00000  Uiso   1.00
N135   N     0.60978   0.39021   0.28711   0.00000  Uiso   1.00
N136   N     0.50653   0.99835   0.51558   0.00000  Uiso   1.00
N137   N     0.24518   0.79851   0.32889   0.00000  Uiso   1.00
N138   N     0.61286   0.68623   0.27044   0.00000  Uiso   1.00
C139   C     0.39942   0.50739   0.61966   0.00000  Uiso   1.00
C140   C     0.38622   0.38074   0.58413   0.00000  Uiso   1.00
C141   C     0.37700   0.43920   0.54504   0.00000  Uiso   1.00
C142   C     0.36554   0.30164   0.51685   0.00000  Uiso   1.00
C143   C     0.34539   0.13373   0.46007   0.00000  Uiso   1.00
C144   C     0.45572   0.43686   0.63721   0.00000  Uiso   1.00
C145   C     0.50492   0.54252   0.64274   0.00000  Uiso   1.00
C146   C     0.55197   0.45221   0.65924   0.00000  Uiso   1.00
C147   C     0.63971   0.37147   0.68488   0.00000  Uiso   1.00
C148   C     0.35363   0.46593   0.65099   0.00000  Uiso   1.00
C149   C     0.31701   0.59604   0.66812   0.00000  Uiso   1.00
C150   C     0.27811   0.53021   0.69623   0.00000  Uiso   1.00
C151   C     0.20734   0.49462   0.74327   0.00000  Uiso   1.00
C152   C     0.39547   0.15914   0.63912   0.00000  Uiso   1.00
C153   C     0.38407   0.19158   0.59470   0.00000  Uiso   1.00
C154   C     0.37263   0.05389   0.56657   0.00000  Uiso   1.00
C155   C     0.36339   0.11214   0.52744   0.00000  Uiso   1.00
C156   C     0.45357   0.24771   0.64777   0.00000  Uiso   1.00
C157   C     0.50055   0.15722   0.66427   0.00000  Uiso   1.00
C158   C     0.54982   0.26271   0.66983   0.00000  Uiso   1.00
C159   C     0.35148   0.27677   0.66156   0.00000  Uiso   1.00
C160   C     0.31264   0.21073   0.68965   0.00000  Uiso   1.00
C161   C     0.27596   0.34071   0.70682   0.00000  Uiso   1.00
H162   H     0.40110   0.65466   0.61144   0.00000  Uiso   1.00
H163   H     0.37867   0.58560   0.53687   0.00000  Uiso   1.00
H164   H     0.50657   0.68890   0.63456   0.00000  Uiso   1.00
H165   H     0.31868   0.74241   0.65994   0.00000  Uiso   1.00
H166   H     0.35287   0.42560   0.45886   0.00000  Uiso   1.00
H167   H     0.62256   0.64345   0.66486   0.00000  Uiso   1.00
H168   H     0.22636   0.75628   0.71837   0.00000  Uiso   1.00
H169   H     0.39380   0.01187   0.64735   0.00000  Uiso   1.00
H170   H     0.37097   0.90752   0.57475   0.00000  Uiso   1.00
H171   H     0.49888   0.01084   0.67244   0.00000  Uiso   1.00
H172   H     0.31099   0.06434   0.69782   0.00000  Uiso   1.00
H173   H     0.34663   0.87525   0.48961   0.00000  Uiso   1.00
H174   H     0.61632   0.09310   0.69561   0.00000  Uiso   1.00
H175   H     0.22012   0.20593   0.74911   0.00000  Uiso   1.00
O176   O     0.33488   0.09338   0.42583   0.00000  Uiso   1.00
O177   O     0.68870   0.37920   0.69610   0.00000  Uiso   1.00
O178   O     0.16890   0.52723   0.76629   0.00000  Uiso   1.00
N179   N     0.35452   0.31040   0.47606   0.00000  Uiso   1.00
N180   N     0.60667   0.51407   0.66865   0.00000  Uiso   1.00
N181   N     0.23627   0.61957   0.71868   0.00000  Uiso   1.00
N182   N     0.35116   0.01426   0.49260   0.00000  Uiso   1.00
N183   N     0.60331   0.21793   0.68520   0.00000  Uiso   1.00
N184   N     0.23291   0.32343   0.73523   0.00000  Uiso   1.00
C185   C     0.95153   0.99436   0.61021   0.00000  Uiso   1.00
C186   C     0.96660   0.86782   0.57503   0.00000  Uiso   1.00
C187   C     0.97755   0.92630   0.53615   0.00000  Uiso   1.00
C188   C     0.99055   0.78886   0.50827   0.00000  Uiso   1.00
C189   C     0.01362   0.62112   0.45201   0.00000  Uiso   1.00
C190   C     0.89457   0.92288   0.62647   0.00000  Uiso   1.00
C191   C     0.84495   0.02769   0.63086   0.00000  Uiso   1.00
C192   C     0.79731   0.93659   0.64629   0.00000  Uiso   1.00
C193   C     0.70856   0.85438   0.66993   0.00000  Uiso   1.00
C194   C     0.99590   0.95383   0.64257   0.00000  Uiso   1.00
C195   C     0.03149   0.08465   0.66051   0.00000  Uiso   1.00
C196   C     0.06916   0.01961   0.68950   0.00000  Uiso   1.00
C197   C     0.13775   0.98545   0.73814   0.00000  Uiso   1.00
C198   C     0.95515   0.64625   0.62982   0.00000  Uiso   1.00
C199   C     0.96857   0.67874   0.58568   0.00000  Uiso   1.00
C200   C     0.98156   0.54116   0.55785   0.00000  Uiso   1.00
C201   C     0.99252   0.59944   0.51894   0.00000  Uiso   1.00
C202   C     0.89653   0.73381   0.63712   0.00000  Uiso   1.00
C203   C     0.84896   0.64254   0.65255   0.00000  Uiso   1.00
C204   C     0.79928   0.74717   0.65696   0.00000  Uiso   1.00
C205   C     0.99787   0.76474   0.65322   0.00000  Uiso   1.00
C206   C     0.03549   0.69950   0.68220   0.00000  Uiso   1.00
C207   C     0.07113   0.83019   0.70017   0.00000  Uiso   1.00
H208   H     0.95000   0.14157   0.60192   0.00000  Uiso   1.00
H209   H     0.97602   0.07265   0.52792   0.00000  Uiso   1.00
H210   H     0.84344   0.17401   0.62262   0.00000  Uiso   1.00
H211   H     0.02995   0.23096   0.65226   0.00000  Uiso   1.00
H212   H     0.00572   0.91284   0.45058   0.00000  Uiso   1.00
H213   H     0.72618   0.12659   0.65026   0.00000  Uiso   1.00
H214   H     0.11946   0.24668   0.71277   0.00000  Uiso   1.00
H215   H     0.95668   0.49904   0.63811   0.00000  Uiso   1.00
H216   H     0.98308   0.39485   0.56610   0.00000  Uiso   1.00
H217   H     0.85050   0.49622   0.66079   0.00000  Uiso   1.00
H218   H     0.03700   0.55317   0.69043   0.00000  Uiso   1.00
H219   H     0.01144   0.36271   0.48156   0.00000  Uiso   1.00
H220   H     0.73190   0.57647   0.68124   0.00000  Uiso   1.00
H221   H     0.12519   0.69656   0.74375   0.00000  Uiso   1.00
O222   O     0.02580   0.58083   0.41804   0.00000  Uiso   1.00
O223   O     0.65906   0.86127   0.68002   0.00000  Uiso   1.00
O224   O     0.17504   0.01883   0.76203   0.00000  Uiso   1.00
N225   N     0.00345   0.79767   0.46775   0.00000  Uiso   1.00
N226   N     0.74210   0.99750   0.65444   0.00000  Uiso   1.00
N227   N     0.10978   0.10979   0.71289   0.00000  Uiso   1.00
N228   N     0.00653   0.50165   0.48442   0.00000  Uiso   1.00
N229   N     0.74518   0.70149   0.67111   0.00000  Uiso   1.00
N230   N     0.11286   0.81377   0.72956   0.00000  Uiso   1.00
C231   C     0.89942   0.99261   0.38034   0.00000  Uiso   1.00
C232   C     0.88622   0.11926   0.41587   0.00000  Uiso   1.00
C233   C     0.87700   0.06080   0.45496   0.00000  Uiso   1.00
C234   C     0.86554   0.19836   0.48315   0.00000  Uiso   1.00
C235   C     0.84539   0.36627   0.53993   0.00000  Uiso   1.00
C236   C     0.95572   0.06314   0.36279   0.00000  Uiso   1.00
C237   C     0.00492   0.95748   0.35726   0.00000  Uiso   1.00
C238   C     0.05197   0.04779   0.34076   0.00000  Uiso   1.00
C239   C     0.13971   0.12853   0.31512   0.00000  Uiso   1.00
C240   C     0.85363   0.03407   0.34901   0.00000  Uiso   1.00
C241   C     0.81701   0.90396   0.33188   0.00000  Uiso   1.00
C242   C     0.77811   0.96979   0.30377   0.00000  Uiso   1.00
C243   C     0.70734   0.00538   0.25673   0.00000  Uiso   1.00
C244   C     0.89547   0.34086   0.36088   0.00000  Uiso   1.00
C245   C     0.88407   0.30842   0.40530   0.00000  Uiso   1.00
C246   C     0.87263   0.44611   0.43343   0.00000  Uiso   1.00
C247   C     0.86339   0.38786   0.47256   0.00000  Uiso   1.00
C248   C     0.95357   0.25229   0.35223   0.00000  Uiso   1.00
C249   C     0.00055   0.34278   0.33573   0.00000  Uiso   1.00
C250   C     0.04982   0.23729   0.33017   0.00000  Uiso   1.00
C251   C     0.85148   0.22323   0.33844   0.00000  Uiso   1.00
C252   C     0.81264   0.28927   0.31035   0.00000  Uiso   1.00
C253   C     0.77596   0.15929   0.29318   0.00000  Uiso   1.00
H254   H     0.90110   0.84534   0.38856   0.00000  Uiso   1.00
H255   H     0.87867   0.91440   0.46313   0.00000  Uiso   1.00
H256   H     0.00657   0.81110   0.36544   0.00000  Uiso   1.00
H257   H     0.81868   0.75759   0.34006   0.00000  Uiso   1.00
H258   H     0.85287   0.07440   0.54114   0.00000  Uiso   1.00
H259   H     0.12256   0.85655   0.33514   0.00000  Uiso   1.00
H260   H     0.72636   0.74372   0.28163   0.00000  Uiso   1.00
H261   H     0.89380   0.48813   0.35265   0.00000  Uiso   1.00
H262   H     0.87097   0.59248   0.42525   0.00000  Uiso   1.00
H263   H     0.99888   0.48916   0.32756   0.00000  Uiso   1.00
H264   H     0.81099   0.43566   0.30218   0.00000  Uiso   1.00
H265   H     0.84663   0.62475   0.51039   0.00000  Uiso   1.00
H266   H     0.11632   0.40690   0.30439   0.00000  Uiso   1.00
H267   H     0.72012   0.29407   0.25089   0.00000  Uiso   1.00
O268   O     0.83488   0.40662   0.57417   0.00000  Uiso   1.00
O269   O     0.18870   0.12080   0.30390   0.00000  Uiso   1.00
O270   O     0.66890   0.97277   0.23371   0.00000  Uiso   1.00
N271   N     0.85452   0.18960   0.52394   0.00000  Uiso   1.00
N272   N     0.10667   0.98593   0.33135   0.00000  Uiso   1.00
N273   N     0.73627   0.88043   0.28132   0.00000  Uiso   1.00
N274   N     0.85116   0.48574   0.50740   0.00000  Uiso   1.00
N275   N     0.10331   0.28207   0.31480   0.00000  Uiso   1.00
N276   N     0.73291   0.17657   0.26477   0.00000  Uiso   1.00
C277   C     0.54847   0.00564   0.11021   0.00000  Uiso   1.00
C278   C     0.53340   0.13218   0.07503   0.00000  Uiso   1.00
C279   C     0.52245   0.07370   0.03615   0.00000  Uiso   1.00
C280   C     0.50945   0.21114   0.00827   0.00000  Uiso   1.00
C281   C     0.48638   0.37888   0.95201   0.00000  Uiso   1.00
C282   C     0.60543   0.07712   0.12647   0.00000  Uiso   1.00
C283   C     0.65505   0.97231   0.13086   0.00000  Uiso   1.00
C284   C     0.70269   0.06341   0.14629   0.00000  Uiso   1.00
C285   C     0.79144   0.14562   0.16993   0.00000  Uiso   1.00
C286   C     0.50410   0.04617   0.14257   0.00000  Uiso   1.00
C287   C     0.46851   0.91535   0.16051   0.00000  Uiso   1.00
C288   C     0.43084   0.98039   0.18950   0.00000  Uiso   1.00
C289   C     0.36225   0.01455   0.23814   0.00000  Uiso   1.00
C290   C     0.54485   0.35375   0.12982   0.00000  Uiso   1.00
C291   C     0.53143   0.32126   0.08568   0.00000  Uiso   1.00
C292   C     0.51844   0.45884   0.05785   0.00000  Uiso   1.00
C293   C     0.50748   0.40056   0.01894   0.00000  Uiso   1.00
C294   C     0.60347   0.26619   0.13712   0.00000  Uiso   1.00
C295   C     0.65104   0.35746   0.15255   0.00000  Uiso   1.00
C296   C     0.70072   0.25283   0.15696   0.00000  Uiso   1.00
C297   C     0.50213   0.23526   0.15322   0.00000  Uiso   1.00
C298   C     0.46451   0.30050   0.18220   0.00000  Uiso   1.00
C299   C     0.42887   0.16981   0.20017   0.00000  Uiso   1.00
H300   H     0.55000   0.85843   0.10192   0.00000  Uiso   1.00
H301   H     0.52398   0.92735   0.02792   0.00000  Uiso   1.00
H302   H     0.65656   0.82599   0.12262   0.00000  Uiso   1.00
H303   H     0.47005   0.76904   0.15226   0.00000  Uiso   1.00
H304   H     0.49428   0.08716   0.95058   0.00000  Uiso   1.00
H305   H     0.77382   0.87341   0.15026   0.00000  Uiso   1.00
H306   H     0.38054   0.75332   0.21277   0.00000  Uiso   1.00
H307   H     0.54332   0.50096   0.13811   0.00000  Uiso   1.00
H308   H     0.51692   0.60515   0.06610   0.00000  Uiso   1.00
H309   H     0.64950   0.50378   0.16079   0.00000  Uiso   1.00
H310   H     0.46300   0.44683   0.19043   0.00000  Uiso   1.00
H311   H     0.48856   0.63729   0.98156   0.00000  Uiso   1.00
H312   H     0.76810   0.42353   0.18124   0.00000  Uiso   1.00
H313   H     0.37481   0.30344   0.24375   0.00000  Uiso   1.00
O314   O     0.47420   0.41917   0.91804   0.00000  Uiso   1.00
O315   O     0.84094   0.13873   0.18002   0.00000  Uiso   1.00
O316   O     0.32496   0.98117   0.26203   0.00000  Uiso   1.00
N317   N     0.49655   0.20233   0.96775   0.00000  Uiso   1.00
N318   N     0.75790   0.00250   0.15444   0.00000  Uiso   1.00
N319   N     0.39022   0.89021   0.21289   0.00000  Uiso   1.00
N320   N     0.49347   0.49835   0.98442   0.00000  Uiso   1.00
N321   N     0.75482   0.29851   0.17111   0.00000  Uiso   1.00
N322   N     0.38714   0.18623   0.22956   0.00000  Uiso   1.00
C323   C     0.60058   0.00739   0.88034   0.00000  Uiso   1.00
C324   C     0.61378   0.88074   0.91587   0.00000  Uiso   1.00
C325   C     0.62300   0.93920   0.95496   0.00000  Uiso   1.00
C326   C     0.63446   0.80164   0.98315   0.00000  Uiso   1.00
C327   C     0.65461   0.63373   0.03993   0.00000  Uiso   1.00
C328   C     0.54428   0.93686   0.86279   0.00000  Uiso   1.00
C329   C     0.49508   0.04252   0.85726   0.00000  Uiso   1.00
C330   C     0.44803   0.95221   0.84076   0.00000  Uiso   1.00
C331   C     0.36029   0.87147   0.81512   0.00000  Uiso   1.00
C332   C     0.64637   0.96593   0.84901   0.00000  Uiso   1.00
C333   C     0.68299   0.09604   0.83188   0.00000  Uiso   1.00
C334   C     0.72189   0.03021   0.80377   0.00000  Uiso   1.00
C335   C     0.79266   0.99462   0.75673   0.00000  Uiso   1.00
C336   C     0.60453   0.65914   0.86088   0.00000  Uiso   1.00
C337   C     0.61593   0.69158   0.90530   0.00000  Uiso   1.00
C338   C     0.62737   0.55389   0.93343   0.00000  Uiso   1.00
C339   C     0.63661   0.61214   0.97256   0.00000  Uiso   1.00
C340   C     0.54643   0.74771   0.85223   0.00000  Uiso   1.00
C341   C     0.49945   0.65722   0.83573   0.00000  Uiso   1.00
C342   C     0.45018   0.76271   0.83017   0.00000  Uiso   1.00
C343   C     0.64852   0.77677   0.83844   0.00000  Uiso   1.00
C344   C     0.68736   0.71073   0.81035   0.00000  Uiso   1.00
C345   C     0.72404   0.84071   0.79318   0.00000  Uiso   1.00
H346   H     0.59890   0.15466   0.88856   0.00000  Uiso   1.00
H347   H     0.62133   0.08560   0.96313   0.00000  Uiso   1.00
H348   H     0.49343   0.18890   0.86544   0.00000  Uiso   1.00
H349   H     0.68132   0.24241   0.84006   0.00000  Uiso   1.00
H350   H     0.64713   0.92560   0.04114   0.00000  Uiso   1.00
H351   H     0.37744   0.14345   0.83514   0.00000  Uiso   1.00
H352   H     0.77364   0.25628   0.78163   0.00000  Uiso   1.00
H353   H     0.60620   0.51187   0.85265   0.00000  Uiso   1.00
H354   H     0.62903   0.40752   0.92525   0.00000  Uiso   1.00
H355   H     0.50112   0.51084   0.82756   0.00000  Uiso   1.00
H356   H     0.68901   0.56434   0.80218   0.00000  Uiso   1.00
H357   H     0.65337   0.37525   0.01039   0.00000  Uiso   1.00
H358   H     0.38368   0.59310   0.80439   0.00000  Uiso   1.00
H359   H     0.77988   0.70593   0.75089   0.00000  Uiso   1.00
O360   O     0.66512   0.59338   0.07417   0.00000  Uiso   1.00
O361   O     0.31130   0.87920   0.80390   0.00000  Uiso   1.00
O362   O     0.83110   0.02723   0.73371   0.00000  Uiso   1.00
N363   N     0.64548   0.81040   0.02394   0.00000  Uiso   1.00
N364   N     0.39333   0.01407   0.83135   0.00000  Uiso   1.00
N365   N     0.76373   0.11957   0.78132   0.00000  Uiso   1.00
N366   N     0.64884   0.51426   0.00740   0.00000  Uiso   1.00
N367   N     0.39669   0.71793   0.81480   0.00000  Uiso   1.00
N368   N     0.76709   0.82343   0.76477   0.00000  Uiso   1.00
