data_job_02137
_audit_creation_date              2018-12-19
_audit_creation_method            'Materials Studio'
_symmetry_space_group_name_H-M    'P1'
_symmetry_Int_Tables_number       1
_symmetry_cell_setting            triclinic
loop_
_symmetry_equiv_pos_as_xyz
  x,y,z
_cell_length_a                    13.8683
_cell_length_b                    32.7720
_cell_length_c                    11.5092
_cell_angle_alpha                 90.0000
_cell_angle_beta                  90.0000
_cell_angle_gamma                 90.0000
loop_
_atom_site_label
_atom_site_type_symbol
_atom_site_fract_x
_atom_site_fract_y
_atom_site_fract_z
_atom_site_U_iso_or_equiv
_atom_site_adp_type
_atom_site_occupancy
C1     C     0.27022   0.34003   0.48105   0.00000  Uiso   1.00
C2     C     0.21811   0.37343   0.41348   0.00000  Uiso   1.00
C3     C     0.25682   0.39611   0.32297   0.00000  Uiso   1.00
C4     C     0.19748   0.42525   0.27242   0.00000  Uiso   1.00
C5     C     0.13098   0.47619   0.16166   0.00000  Uiso   1.00
C6     C     0.26535   0.35256   0.60852   0.00000  Uiso   1.00
C7     C     0.34378   0.35769   0.68198   0.00000  Uiso   1.00
C8     C     0.32420   0.36926   0.79561   0.00000  Uiso   1.00
C9     C     0.33104   0.38777   0.98767   0.00000  Uiso   1.00
C10    C     0.20783   0.30191   0.46994   0.00000  Uiso   1.00
C11    C     0.23789   0.26445   0.42692   0.00000  Uiso   1.00
C12    C     0.16989   0.23337   0.42391   0.00000  Uiso   1.00
C13    C     0.08741   0.17324   0.40081   0.00000  Uiso   1.00
C14    C     0.09602   0.35144   0.55223   0.00000  Uiso   1.00
C15    C     0.12349   0.37963   0.45215   0.00000  Uiso   1.00
C16    C     0.06408   0.40874   0.40172   0.00000  Uiso   1.00
C17    C     0.10269   0.43146   0.31115   0.00000  Uiso   1.00
C18    C     0.17074   0.35876   0.64718   0.00000  Uiso   1.00
C19    C     0.15104   0.37032   0.76073   0.00000  Uiso   1.00
C20    C     0.22941   0.37547   0.83435   0.00000  Uiso   1.00
C21    C     0.11320   0.30811   0.50860   0.00000  Uiso   1.00
C22    C     0.04515   0.27708   0.50567   0.00000  Uiso   1.00
C23    C     0.07510   0.23959   0.46264   0.00000  Uiso   1.00
H24    H     0.34389   0.33520   0.45096   0.00000  Uiso   1.00
H25    H     0.33005   0.39131   0.29308   0.00000  Uiso   1.00
H26    H     0.41699   0.35289   0.65204   0.00000  Uiso   1.00
H27    H     0.31111   0.25967   0.39701   0.00000  Uiso   1.00
H28    H     0.27299   0.45626   0.13513   0.00000  Uiso   1.00
H29    H     0.45631   0.37523   0.89202   0.00000  Uiso   1.00
H30    H     0.23305   0.17866   0.35425   0.00000  Uiso   1.00
H31    H     0.02235   0.35627   0.58233   0.00000  Uiso   1.00
H32    H     0.99086   0.41353   0.43166   0.00000  Uiso   1.00
H33    H     0.07781   0.37511   0.79062   0.00000  Uiso   1.00
H34    H     0.97193   0.28189   0.53559   0.00000  Uiso   1.00
H35    H     0.99769   0.47430   0.24760   0.00000  Uiso   1.00
H36    H     0.18102   0.39327   0.00450   0.00000  Uiso   1.00
H37    H     0.95776   0.19670   0.46672   0.00000  Uiso   1.00
O38    O     0.12044   0.50258   0.08990   0.00000  Uiso   1.00
O39    O     0.36095   0.39627   0.08292   0.00000  Uiso   1.00
O40    O     0.06804   0.13837   0.37737   0.00000  Uiso   1.00
N41    N     0.21251   0.45264   0.18226   0.00000  Uiso   1.00
N42    N     0.38391   0.37689   0.88990   0.00000  Uiso   1.00
N43    N     0.17519   0.19311   0.38716   0.00000  Uiso   1.00
N44    N     0.06438   0.46235   0.24278   0.00000  Uiso   1.00
N45    N     0.23577   0.38660   0.95042   0.00000  Uiso   1.00
N46    N     0.02706   0.20281   0.44768   0.00000  Uiso   1.00
C47    C     0.22978   0.65997   0.48105   0.00000  Uiso   1.00
C48    C     0.28189   0.62657   0.41348   0.00000  Uiso   1.00
C49    C     0.24318   0.60389   0.32297   0.00000  Uiso   1.00
C50    C     0.30252   0.57475   0.27242   0.00000  Uiso   1.00
C51    C     0.36902   0.52381   0.16166   0.00000  Uiso   1.00
C52    C     0.23465   0.64744   0.60852   0.00000  Uiso   1.00
C53    C     0.15622   0.64231   0.68198   0.00000  Uiso   1.00
C54    C     0.17580   0.63074   0.79561   0.00000  Uiso   1.00
C55    C     0.16896   0.61223   0.98767   0.00000  Uiso   1.00
C56    C     0.29217   0.69809   0.46994   0.00000  Uiso   1.00
C57    C     0.26211   0.73555   0.42692   0.00000  Uiso   1.00
C58    C     0.33011   0.76663   0.42391   0.00000  Uiso   1.00
C59    C     0.41259   0.82676   0.40081   0.00000  Uiso   1.00
C60    C     0.40398   0.64856   0.55223   0.00000  Uiso   1.00
C61    C     0.37651   0.62037   0.45215   0.00000  Uiso   1.00
C62    C     0.43592   0.59126   0.40172   0.00000  Uiso   1.00
C63    C     0.39731   0.56854   0.31115   0.00000  Uiso   1.00
C64    C     0.32926   0.64124   0.64718   0.00000  Uiso   1.00
C65    C     0.34896   0.62968   0.76073   0.00000  Uiso   1.00
C66    C     0.27059   0.62453   0.83435   0.00000  Uiso   1.00
C67    C     0.38680   0.69189   0.50860   0.00000  Uiso   1.00
C68    C     0.45485   0.72292   0.50567   0.00000  Uiso   1.00
C69    C     0.42490   0.76041   0.46264   0.00000  Uiso   1.00
H70    H     0.15611   0.66480   0.45096   0.00000  Uiso   1.00
H71    H     0.16995   0.60869   0.29308   0.00000  Uiso   1.00
H72    H     0.08301   0.64711   0.65204   0.00000  Uiso   1.00
H73    H     0.18889   0.74033   0.39701   0.00000  Uiso   1.00
H74    H     0.22701   0.54374   0.13513   0.00000  Uiso   1.00
H75    H     0.04369   0.62477   0.89202   0.00000  Uiso   1.00
H76    H     0.26695   0.82134   0.35425   0.00000  Uiso   1.00
H77    H     0.47765   0.64373   0.58233   0.00000  Uiso   1.00
H78    H     0.50914   0.58647   0.43166   0.00000  Uiso   1.00
H79    H     0.42219   0.62489   0.79062   0.00000  Uiso   1.00
H80    H     0.52807   0.71811   0.53559   0.00000  Uiso   1.00
H81    H     0.50231   0.52570   0.24760   0.00000  Uiso   1.00
H82    H     0.31898   0.60673   0.00450   0.00000  Uiso   1.00
H83    H     0.54224   0.80330   0.46672   0.00000  Uiso   1.00
O84    O     0.37956   0.49742   0.08990   0.00000  Uiso   1.00
O85    O     0.13905   0.60373   0.08292   0.00000  Uiso   1.00
O86    O     0.43196   0.86163   0.37737   0.00000  Uiso   1.00
N87    N     0.28749   0.54736   0.18226   0.00000  Uiso   1.00
N88    N     0.11609   0.62311   0.88990   0.00000  Uiso   1.00
N89    N     0.32481   0.80689   0.38716   0.00000  Uiso   1.00
N90    N     0.43562   0.53765   0.24278   0.00000  Uiso   1.00
N91    N     0.26423   0.61340   0.95042   0.00000  Uiso   1.00
N92    N     0.47294   0.79719   0.44768   0.00000  Uiso   1.00
C93    C     0.22978   0.84003   0.01895   0.00000  Uiso   1.00
C94    C     0.28189   0.87343   0.08652   0.00000  Uiso   1.00
C95    C     0.24318   0.89611   0.17703   0.00000  Uiso   1.00
C96    C     0.30252   0.92525   0.22758   0.00000  Uiso   1.00
C97    C     0.36902   0.97619   0.33834   0.00000  Uiso   1.00
C98    C     0.23465   0.85256   0.89148   0.00000  Uiso   1.00
C99    C     0.15622   0.85769   0.81802   0.00000  Uiso   1.00
C100   C     0.17580   0.86926   0.70439   0.00000  Uiso   1.00
C101   C     0.16896   0.88777   0.51233   0.00000  Uiso   1.00
C102   C     0.29217   0.80191   0.03006   0.00000  Uiso   1.00
C103   C     0.26211   0.76445   0.07308   0.00000  Uiso   1.00
C104   C     0.33011   0.73337   0.07609   0.00000  Uiso   1.00
C105   C     0.41259   0.67324   0.09919   0.00000  Uiso   1.00
C106   C     0.40398   0.85144   0.94777   0.00000  Uiso   1.00
C107   C     0.37651   0.87963   0.04785   0.00000  Uiso   1.00
C108   C     0.43592   0.90874   0.09828   0.00000  Uiso   1.00
C109   C     0.39731   0.93146   0.18885   0.00000  Uiso   1.00
C110   C     0.32926   0.85876   0.85282   0.00000  Uiso   1.00
C111   C     0.34896   0.87032   0.73927   0.00000  Uiso   1.00
C112   C     0.27059   0.87547   0.66565   0.00000  Uiso   1.00
C113   C     0.38680   0.80811   0.99140   0.00000  Uiso   1.00
C114   C     0.45485   0.77708   0.99433   0.00000  Uiso   1.00
C115   C     0.42490   0.73959   0.03736   0.00000  Uiso   1.00
H116   H     0.15611   0.83520   0.04904   0.00000  Uiso   1.00
H117   H     0.16995   0.89131   0.20692   0.00000  Uiso   1.00
H118   H     0.08301   0.85289   0.84796   0.00000  Uiso   1.00
H119   H     0.18889   0.75967   0.10299   0.00000  Uiso   1.00
H120   H     0.22701   0.95626   0.36487   0.00000  Uiso   1.00
H121   H     0.04369   0.87523   0.60798   0.00000  Uiso   1.00
H122   H     0.26695   0.67866   0.14575   0.00000  Uiso   1.00
H123   H     0.47765   0.85627   0.91767   0.00000  Uiso   1.00
H124   H     0.50914   0.91353   0.06834   0.00000  Uiso   1.00
H125   H     0.42219   0.87511   0.70938   0.00000  Uiso   1.00
H126   H     0.52807   0.78189   0.96441   0.00000  Uiso   1.00
H127   H     0.50231   0.97430   0.25240   0.00000  Uiso   1.00
H128   H     0.31898   0.89327   0.49550   0.00000  Uiso   1.00
H129   H     0.54224   0.69670   0.03328   0.00000  Uiso   1.00
O130   O     0.37956   0.00258   0.41010   0.00000  Uiso   1.00
O131   O     0.13905   0.89627   0.41708   0.00000  Uiso   1.00
O132   O     0.43196   0.63837   0.12263   0.00000  Uiso   1.00
N133   N     0.28749   0.95264   0.31774   0.00000  Uiso   1.00
N134   N     0.11609   0.87689   0.61010   0.00000  Uiso   1.00
N135   N     0.32481   0.69311   0.11284   0.00000  Uiso   1.00
N136   N     0.43562   0.96235   0.25722   0.00000  Uiso   1.00
N137   N     0.26423   0.88660   0.54958   0.00000  Uiso   1.00
N138   N     0.47294   0.70281   0.05232   0.00000  Uiso   1.00
C139   C     0.27022   0.15997   0.01895   0.00000  Uiso   1.00
C140   C     0.21811   0.12657   0.08652   0.00000  Uiso   1.00
C141   C     0.25682   0.10389   0.17703   0.00000  Uiso   1.00
C142   C     0.19748   0.07475   0.22758   0.00000  Uiso   1.00
C143   C     0.13098   0.02381   0.33834   0.00000  Uiso   1.00
C144   C     0.26535   0.14744   0.89148   0.00000  Uiso   1.00
C145   C     0.34378   0.14231   0.81802   0.00000  Uiso   1.00
C146   C     0.32420   0.13074   0.70439   0.00000  Uiso   1.00
C147   C     0.33104   0.11223   0.51233   0.00000  Uiso   1.00
C148   C     0.20783   0.19809   0.03006   0.00000  Uiso   1.00
C149   C     0.23789   0.23555   0.07308   0.00000  Uiso   1.00
C150   C     0.16989   0.26663   0.07609   0.00000  Uiso   1.00
C151   C     0.08741   0.32676   0.09919   0.00000  Uiso   1.00
C152   C     0.09602   0.14856   0.94777   0.00000  Uiso   1.00
C153   C     0.12349   0.12037   0.04785   0.00000  Uiso   1.00
C154   C     0.06408   0.09126   0.09828   0.00000  Uiso   1.00
C155   C     0.10269   0.06854   0.18885   0.00000  Uiso   1.00
C156   C     0.17074   0.14124   0.85282   0.00000  Uiso   1.00
C157   C     0.15104   0.12968   0.73927   0.00000  Uiso   1.00
C158   C     0.22941   0.12453   0.66565   0.00000  Uiso   1.00
C159   C     0.11320   0.19189   0.99140   0.00000  Uiso   1.00
C160   C     0.04515   0.22292   0.99433   0.00000  Uiso   1.00
C161   C     0.07510   0.26041   0.03736   0.00000  Uiso   1.00
H162   H     0.34389   0.16480   0.04904   0.00000  Uiso   1.00
H163   H     0.33005   0.10869   0.20692   0.00000  Uiso   1.00
H164   H     0.41699   0.14711   0.84796   0.00000  Uiso   1.00
H165   H     0.31111   0.24033   0.10299   0.00000  Uiso   1.00
H166   H     0.27299   0.04374   0.36487   0.00000  Uiso   1.00
H167   H     0.45631   0.12477   0.60798   0.00000  Uiso   1.00
H168   H     0.23305   0.32134   0.14575   0.00000  Uiso   1.00
H169   H     0.02235   0.14373   0.91767   0.00000  Uiso   1.00
H170   H     0.99086   0.08647   0.06834   0.00000  Uiso   1.00
H171   H     0.07781   0.12489   0.70938   0.00000  Uiso   1.00
H172   H     0.97193   0.21811   0.96441   0.00000  Uiso   1.00
H173   H     0.99769   0.02570   0.25240   0.00000  Uiso   1.00
H174   H     0.18102   0.10673   0.49550   0.00000  Uiso   1.00
H175   H     0.95776   0.30330   0.03328   0.00000  Uiso   1.00
O176   O     0.12044   0.99742   0.41010   0.00000  Uiso   1.00
O177   O     0.36095   0.10373   0.41708   0.00000  Uiso   1.00
O178   O     0.06804   0.36163   0.12263   0.00000  Uiso   1.00
N179   N     0.21251   0.04736   0.31774   0.00000  Uiso   1.00
N180   N     0.38391   0.12311   0.61010   0.00000  Uiso   1.00
N181   N     0.17519   0.30689   0.11284   0.00000  Uiso   1.00
N182   N     0.06438   0.03765   0.25722   0.00000  Uiso   1.00
N183   N     0.23577   0.11340   0.54958   0.00000  Uiso   1.00
N184   N     0.02706   0.29719   0.05232   0.00000  Uiso   1.00
C185   C     0.72978   0.65997   0.51895   0.00000  Uiso   1.00
C186   C     0.78189   0.62657   0.58652   0.00000  Uiso   1.00
C187   C     0.74318   0.60389   0.67703   0.00000  Uiso   1.00
C188   C     0.80252   0.57475   0.72758   0.00000  Uiso   1.00
C189   C     0.86902   0.52381   0.83834   0.00000  Uiso   1.00
C190   C     0.73465   0.64744   0.39148   0.00000  Uiso   1.00
C191   C     0.65622   0.64231   0.31802   0.00000  Uiso   1.00
C192   C     0.67580   0.63074   0.20439   0.00000  Uiso   1.00
C193   C     0.66896   0.61223   0.01233   0.00000  Uiso   1.00
C194   C     0.79217   0.69809   0.53006   0.00000  Uiso   1.00
C195   C     0.76211   0.73555   0.57308   0.00000  Uiso   1.00
C196   C     0.83011   0.76663   0.57609   0.00000  Uiso   1.00
C197   C     0.91259   0.82676   0.59919   0.00000  Uiso   1.00
C198   C     0.90398   0.64856   0.44777   0.00000  Uiso   1.00
C199   C     0.87651   0.62037   0.54785   0.00000  Uiso   1.00
C200   C     0.93592   0.59126   0.59828   0.00000  Uiso   1.00
C201   C     0.89731   0.56854   0.68885   0.00000  Uiso   1.00
C202   C     0.82926   0.64124   0.35282   0.00000  Uiso   1.00
C203   C     0.84896   0.62968   0.23927   0.00000  Uiso   1.00
C204   C     0.77059   0.62453   0.16565   0.00000  Uiso   1.00
C205   C     0.88680   0.69189   0.49140   0.00000  Uiso   1.00
C206   C     0.95485   0.72292   0.49433   0.00000  Uiso   1.00
C207   C     0.92490   0.76041   0.53736   0.00000  Uiso   1.00
H208   H     0.65611   0.66480   0.54904   0.00000  Uiso   1.00
H209   H     0.66995   0.60869   0.70692   0.00000  Uiso   1.00
H210   H     0.58301   0.64711   0.34796   0.00000  Uiso   1.00
H211   H     0.68889   0.74033   0.60299   0.00000  Uiso   1.00
H212   H     0.72701   0.54374   0.86487   0.00000  Uiso   1.00
H213   H     0.54369   0.62477   0.10798   0.00000  Uiso   1.00
H214   H     0.76695   0.82134   0.64575   0.00000  Uiso   1.00
H215   H     0.97765   0.64373   0.41767   0.00000  Uiso   1.00
H216   H     0.00914   0.58647   0.56834   0.00000  Uiso   1.00
H217   H     0.92219   0.62489   0.20938   0.00000  Uiso   1.00
H218   H     0.02807   0.71811   0.46441   0.00000  Uiso   1.00
H219   H     0.00231   0.52570   0.75240   0.00000  Uiso   1.00
H220   H     0.81898   0.60673   0.99550   0.00000  Uiso   1.00
H221   H     0.04224   0.80330   0.53328   0.00000  Uiso   1.00
O222   O     0.87956   0.49742   0.91010   0.00000  Uiso   1.00
O223   O     0.63905   0.60373   0.91708   0.00000  Uiso   1.00
O224   O     0.93196   0.86163   0.62263   0.00000  Uiso   1.00
N225   N     0.78749   0.54736   0.81774   0.00000  Uiso   1.00
N226   N     0.61609   0.62311   0.11010   0.00000  Uiso   1.00
N227   N     0.82481   0.80689   0.61284   0.00000  Uiso   1.00
N228   N     0.93562   0.53765   0.75722   0.00000  Uiso   1.00
N229   N     0.76423   0.61340   0.04958   0.00000  Uiso   1.00
N230   N     0.97294   0.79719   0.55232   0.00000  Uiso   1.00
C231   C     0.77022   0.34003   0.51895   0.00000  Uiso   1.00
C232   C     0.71811   0.37343   0.58652   0.00000  Uiso   1.00
C233   C     0.75682   0.39611   0.67703   0.00000  Uiso   1.00
C234   C     0.69748   0.42525   0.72758   0.00000  Uiso   1.00
C235   C     0.63098   0.47619   0.83834   0.00000  Uiso   1.00
C236   C     0.76535   0.35256   0.39148   0.00000  Uiso   1.00
C237   C     0.84378   0.35769   0.31802   0.00000  Uiso   1.00
C238   C     0.82420   0.36926   0.20439   0.00000  Uiso   1.00
C239   C     0.83104   0.38777   0.01233   0.00000  Uiso   1.00
C240   C     0.70783   0.30191   0.53006   0.00000  Uiso   1.00
C241   C     0.73789   0.26445   0.57308   0.00000  Uiso   1.00
C242   C     0.66989   0.23337   0.57609   0.00000  Uiso   1.00
C243   C     0.58741   0.17324   0.59919   0.00000  Uiso   1.00
C244   C     0.59602   0.35144   0.44777   0.00000  Uiso   1.00
C245   C     0.62349   0.37963   0.54785   0.00000  Uiso   1.00
C246   C     0.56408   0.40874   0.59828   0.00000  Uiso   1.00
C247   C     0.60269   0.43146   0.68885   0.00000  Uiso   1.00
C248   C     0.67074   0.35876   0.35282   0.00000  Uiso   1.00
C249   C     0.65104   0.37032   0.23927   0.00000  Uiso   1.00
C250   C     0.72941   0.37547   0.16565   0.00000  Uiso   1.00
C251   C     0.61320   0.30811   0.49140   0.00000  Uiso   1.00
C252   C     0.54515   0.27708   0.49433   0.00000  Uiso   1.00
C253   C     0.57510   0.23959   0.53736   0.00000  Uiso   1.00
H254   H     0.84389   0.33520   0.54904   0.00000  Uiso   1.00
H255   H     0.83005   0.39131   0.70692   0.00000  Uiso   1.00
H256   H     0.91699   0.35289   0.34796   0.00000  Uiso   1.00
H257   H     0.81111   0.25967   0.60299   0.00000  Uiso   1.00
H258   H     0.77299   0.45626   0.86487   0.00000  Uiso   1.00
H259   H     0.95631   0.37523   0.10798   0.00000  Uiso   1.00
H260   H     0.73305   0.17866   0.64575   0.00000  Uiso   1.00
H261   H     0.52235   0.35627   0.41767   0.00000  Uiso   1.00
H262   H     0.49086   0.41353   0.56834   0.00000  Uiso   1.00
H263   H     0.57781   0.37511   0.20938   0.00000  Uiso   1.00
H264   H     0.47193   0.28189   0.46441   0.00000  Uiso   1.00
H265   H     0.49769   0.47430   0.75240   0.00000  Uiso   1.00
H266   H     0.68102   0.39327   0.99550   0.00000  Uiso   1.00
H267   H     0.45776   0.19670   0.53328   0.00000  Uiso   1.00
O268   O     0.62044   0.50258   0.91010   0.00000  Uiso   1.00
O269   O     0.86095   0.39627   0.91708   0.00000  Uiso   1.00
O270   O     0.56804   0.13837   0.62263   0.00000  Uiso   1.00
N271   N     0.71251   0.45264   0.81774   0.00000  Uiso   1.00
N272   N     0.88391   0.37689   0.11010   0.00000  Uiso   1.00
N273   N     0.67519   0.19311   0.61284   0.00000  Uiso   1.00
N274   N     0.56438   0.46235   0.75722   0.00000  Uiso   1.00
N275   N     0.73577   0.38660   0.04958   0.00000  Uiso   1.00
N276   N     0.52706   0.20281   0.55232   0.00000  Uiso   1.00
C277   C     0.77022   0.15997   0.98105   0.00000  Uiso   1.00
C278   C     0.71811   0.12657   0.91348   0.00000  Uiso   1.00
C279   C     0.75682   0.10389   0.82297   0.00000  Uiso   1.00
C280   C     0.69748   0.07475   0.77242   0.00000  Uiso   1.00
C281   C     0.63098   0.02381   0.66166   0.00000  Uiso   1.00
C282   C     0.76535   0.14744   0.10852   0.00000  Uiso   1.00
C283   C     0.84378   0.14231   0.18198   0.00000  Uiso   1.00
C284   C     0.82420   0.13074   0.29561   0.00000  Uiso   1.00
C285   C     0.83104   0.11223   0.48767   0.00000  Uiso   1.00
C286   C     0.70783   0.19809   0.96994   0.00000  Uiso   1.00
C287   C     0.73789   0.23555   0.92692   0.00000  Uiso   1.00
C288   C     0.66989   0.26663   0.92391   0.00000  Uiso   1.00
C289   C     0.58741   0.32676   0.90081   0.00000  Uiso   1.00
C290   C     0.59602   0.14856   0.05223   0.00000  Uiso   1.00
C291   C     0.62349   0.12037   0.95215   0.00000  Uiso   1.00
C292   C     0.56408   0.09126   0.90172   0.00000  Uiso   1.00
C293   C     0.60269   0.06854   0.81115   0.00000  Uiso   1.00
C294   C     0.67074   0.14124   0.14718   0.00000  Uiso   1.00
C295   C     0.65104   0.12968   0.26073   0.00000  Uiso   1.00
C296   C     0.72941   0.12453   0.33435   0.00000  Uiso   1.00
C297   C     0.61320   0.19189   0.00860   0.00000  Uiso   1.00
C298   C     0.54515   0.22292   0.00567   0.00000  Uiso   1.00
C299   C     0.57510   0.26041   0.96264   0.00000  Uiso   1.00
H300   H     0.84389   0.16480   0.95096   0.00000  Uiso   1.00
H301   H     0.83005   0.10869   0.79308   0.00000  Uiso   1.00
H302   H     0.91699   0.14711   0.15204   0.00000  Uiso   1.00
H303   H     0.81111   0.24033   0.89701   0.00000  Uiso   1.00
H304   H     0.77299   0.04374   0.63513   0.00000  Uiso   1.00
H305   H     0.95631   0.12477   0.39202   0.00000  Uiso   1.00
H306   H     0.73305   0.32134   0.85425   0.00000  Uiso   1.00
H307   H     0.52235   0.14373   0.08233   0.00000  Uiso   1.00
H308   H     0.49086   0.08647   0.93166   0.00000  Uiso   1.00
H309   H     0.57781   0.12489   0.29062   0.00000  Uiso   1.00
H310   H     0.47193   0.21811   0.03559   0.00000  Uiso   1.00
H311   H     0.49769   0.02570   0.74760   0.00000  Uiso   1.00
H312   H     0.68102   0.10673   0.50450   0.00000  Uiso   1.00
H313   H     0.45776   0.30330   0.96672   0.00000  Uiso   1.00
O314   O     0.62044   0.99742   0.58990   0.00000  Uiso   1.00
O315   O     0.86095   0.10373   0.58292   0.00000  Uiso   1.00
O316   O     0.56804   0.36163   0.87737   0.00000  Uiso   1.00
N317   N     0.71251   0.04736   0.68226   0.00000  Uiso   1.00
N318   N     0.88391   0.12311   0.38990   0.00000  Uiso   1.00
N319   N     0.67519   0.30689   0.88716   0.00000  Uiso   1.00
N320   N     0.56438   0.03765   0.74278   0.00000  Uiso   1.00
N321   N     0.73577   0.11340   0.45042   0.00000  Uiso   1.00
N322   N     0.52706   0.29719   0.94768   0.00000  Uiso   1.00
C323   C     0.72978   0.84003   0.98105   0.00000  Uiso   1.00
C324   C     0.78189   0.87343   0.91348   0.00000  Uiso   1.00
C325   C     0.74318   0.89611   0.82297   0.00000  Uiso   1.00
C326   C     0.80252   0.92525   0.77242   0.00000  Uiso   1.00
C327   C     0.86902   0.97619   0.66166   0.00000  Uiso   1.00
C328   C     0.73465   0.85256   0.10852   0.00000  Uiso   1.00
C329   C     0.65622   0.85769   0.18198   0.00000  Uiso   1.00
C330   C     0.67580   0.86926   0.29561   0.00000  Uiso   1.00
C331   C     0.66896   0.88777   0.48767   0.00000  Uiso   1.00
C332   C     0.79217   0.80191   0.96994   0.00000  Uiso   1.00
C333   C     0.76211   0.76445   0.92692   0.00000  Uiso   1.00
C334   C     0.83011   0.73337   0.92391   0.00000  Uiso   1.00
C335   C     0.91259   0.67324   0.90081   0.00000  Uiso   1.00
C336   C     0.90398   0.85144   0.05223   0.00000  Uiso   1.00
C337   C     0.87651   0.87963   0.95215   0.00000  Uiso   1.00
C338   C     0.93592   0.90874   0.90172   0.00000  Uiso   1.00
C339   C     0.89731   0.93146   0.81115   0.00000  Uiso   1.00
C340   C     0.82926   0.85876   0.14718   0.00000  Uiso   1.00
C341   C     0.84896   0.87032   0.26073   0.00000  Uiso   1.00
C342   C     0.77059   0.87547   0.33435   0.00000  Uiso   1.00
C343   C     0.88680   0.80811   0.00860   0.00000  Uiso   1.00
C344   C     0.95485   0.77708   0.00567   0.00000  Uiso   1.00
C345   C     0.92490   0.73959   0.96264   0.00000  Uiso   1.00
H346   H     0.65611   0.83520   0.95096   0.00000  Uiso   1.00
H347   H     0.66995   0.89131   0.79308   0.00000  Uiso   1.00
H348   H     0.58301   0.85289   0.15204   0.00000  Uiso   1.00
H349   H     0.68889   0.75967   0.89701   0.00000  Uiso   1.00
H350   H     0.72701   0.95626   0.63513   0.00000  Uiso   1.00
H351   H     0.54369   0.87523   0.39202   0.00000  Uiso   1.00
H352   H     0.76695   0.67866   0.85425   0.00000  Uiso   1.00
H353   H     0.97765   0.85627   0.08233   0.00000  Uiso   1.00
H354   H     0.00914   0.91353   0.93166   0.00000  Uiso   1.00
H355   H     0.92219   0.87511   0.29062   0.00000  Uiso   1.00
H356   H     0.02807   0.78189   0.03559   0.00000  Uiso   1.00
H357   H     0.00231   0.97430   0.74760   0.00000  Uiso   1.00
H358   H     0.81898   0.89327   0.50450   0.00000  Uiso   1.00
H359   H     0.04224   0.69670   0.96672   0.00000  Uiso   1.00
O360   O     0.87956   0.00258   0.58990   0.00000  Uiso   1.00
O361   O     0.63905   0.89627   0.58292   0.00000  Uiso   1.00
O362   O     0.93196   0.63837   0.87737   0.00000  Uiso   1.00
N363   N     0.78749   0.95264   0.68226   0.00000  Uiso   1.00
N364   N     0.61609   0.87689   0.38990   0.00000  Uiso   1.00
N365   N     0.82481   0.69311   0.88716   0.00000  Uiso   1.00
N366   N     0.93562   0.96235   0.74278   0.00000  Uiso   1.00
N367   N     0.76423   0.88660   0.45042   0.00000  Uiso   1.00
N368   N     0.97294   0.70281   0.94768   0.00000  Uiso   1.00
