data_job_05701
_audit_creation_date              2018-12-19
_audit_creation_method            'Materials Studio'
_symmetry_space_group_name_H-M    'P1'
_symmetry_Int_Tables_number       1
_symmetry_cell_setting            triclinic
loop_
_symmetry_equiv_pos_as_xyz
  x,y,z
_cell_length_a                    13.5654
_cell_length_b                    17.7523
_cell_length_c                    24.0785
_cell_angle_alpha                 90.0000
_cell_angle_beta                  90.0000
_cell_angle_gamma                 90.0000
loop_
_atom_site_label
_atom_site_type_symbol
_atom_site_fract_x
_atom_site_fract_y
_atom_site_fract_z
_atom_site_U_iso_or_equiv
_atom_site_adp_type
_atom_site_occupancy
C1     C     0.77579   0.23805   0.69385   0.00000  Uiso   1.00
C2     C     0.82136   0.20433   0.64157   0.00000  Uiso   1.00
C3     C     0.89758   0.23573   0.61088   0.00000  Uiso   1.00
C4     C     0.92883   0.19615   0.56436   0.00000  Uiso   1.00
C5     C     0.00617   0.15423   0.48548   0.00000  Uiso   1.00
C6     C     0.66578   0.24544   0.68202   0.00000  Uiso   1.00
C7     C     0.61118   0.31140   0.68534   0.00000  Uiso   1.00
C8     C     0.51146   0.30642   0.67288   0.00000  Uiso   1.00
C9     C     0.34724   0.32831   0.65683   0.00000  Uiso   1.00
C10    C     0.78537   0.17795   0.73877   0.00000  Uiso   1.00
C11    C     0.83131   0.18717   0.78983   0.00000  Uiso   1.00
C12    C     0.83226   0.12536   0.82516   0.00000  Uiso   1.00
C13    C     0.85373   0.04246   0.89724   0.00000  Uiso   1.00
C14    C     0.69576   0.11191   0.66584   0.00000  Uiso   1.00
C15    C     0.77789   0.13582   0.62635   0.00000  Uiso   1.00
C16    C     0.80904   0.09618   0.57988   0.00000  Uiso   1.00
C17    C     0.88529   0.12751   0.54912   0.00000  Uiso   1.00
C18    C     0.62231   0.17693   0.66680   0.00000  Uiso   1.00
C19    C     0.52264   0.17184   0.65434   0.00000  Uiso   1.00
C20    C     0.46791   0.23778   0.65764   0.00000  Uiso   1.00
C21    C     0.74191   0.10943   0.72356   0.00000  Uiso   1.00
C22    C     0.74278   0.04761   0.75883   0.00000  Uiso   1.00
C23    C     0.78871   0.05673   0.80992   0.00000  Uiso   1.00
H24    H     0.80962   0.29139   0.70570   0.00000  Uiso   1.00
H25    H     0.93119   0.28876   0.62266   0.00000  Uiso   1.00
H26    H     0.64484   0.36441   0.69712   0.00000  Uiso   1.00
H27    H     0.86494   0.24019   0.80159   0.00000  Uiso   1.00
H28    H     0.04678   0.25564   0.52387   0.00000  Uiso   1.00
H29    H     0.44298   0.41515   0.68089   0.00000  Uiso   1.00
H30    H     0.90710   0.15321   0.90118   0.00000  Uiso   1.00
H31    H     0.66192   0.05857   0.65399   0.00000  Uiso   1.00
H32    H     0.77539   0.04316   0.56812   0.00000  Uiso   1.00
H33    H     0.48903   0.11881   0.64257   0.00000  Uiso   1.00
H34    H     0.70913   0.99460   0.74704   0.00000  Uiso   1.00
H35    H     0.92032   0.05630   0.47960   0.00000  Uiso   1.00
H36    H     0.31652   0.21581   0.63662   0.00000  Uiso   1.00
H37    H     0.78064   0.95388   0.85691   0.00000  Uiso   1.00
O38    O     0.06083   0.15004   0.44617   0.00000  Uiso   1.00
O39    O     0.26868   0.35932   0.65218   0.00000  Uiso   1.00
O40    O     0.87759   0.01566   0.94119   0.00000  Uiso   1.00
N41    N     0.00146   0.21083   0.52525   0.00000  Uiso   1.00
N42    N     0.43695   0.35997   0.67204   0.00000  Uiso   1.00
N43    N     0.87084   0.11509   0.87800   0.00000  Uiso   1.00
N44    N     0.93341   0.10357   0.50142   0.00000  Uiso   1.00
N45    N     0.36890   0.25271   0.64822   0.00000  Uiso   1.00
N46    N     0.80279   0.00782   0.85418   0.00000  Uiso   1.00
C47    C     0.72421   0.26195   0.19385   0.00000  Uiso   1.00
C48    C     0.67864   0.29567   0.14157   0.00000  Uiso   1.00
C49    C     0.60242   0.26427   0.11088   0.00000  Uiso   1.00
C50    C     0.57117   0.30385   0.06436   0.00000  Uiso   1.00
C51    C     0.49383   0.34577   0.98548   0.00000  Uiso   1.00
C52    C     0.83422   0.25456   0.18202   0.00000  Uiso   1.00
C53    C     0.88882   0.18860   0.18534   0.00000  Uiso   1.00
C54    C     0.98854   0.19358   0.17288   0.00000  Uiso   1.00
C55    C     0.15276   0.17169   0.15683   0.00000  Uiso   1.00
C56    C     0.71463   0.32205   0.23877   0.00000  Uiso   1.00
C57    C     0.66869   0.31283   0.28983   0.00000  Uiso   1.00
C58    C     0.66774   0.37464   0.32516   0.00000  Uiso   1.00
C59    C     0.64627   0.45754   0.39724   0.00000  Uiso   1.00
C60    C     0.80424   0.38809   0.16584   0.00000  Uiso   1.00
C61    C     0.72211   0.36418   0.12635   0.00000  Uiso   1.00
C62    C     0.69096   0.40382   0.07988   0.00000  Uiso   1.00
C63    C     0.61471   0.37249   0.04912   0.00000  Uiso   1.00
C64    C     0.87769   0.32307   0.16680   0.00000  Uiso   1.00
C65    C     0.97736   0.32816   0.15434   0.00000  Uiso   1.00
C66    C     0.03209   0.26222   0.15764   0.00000  Uiso   1.00
C67    C     0.75809   0.39057   0.22356   0.00000  Uiso   1.00
C68    C     0.75722   0.45239   0.25883   0.00000  Uiso   1.00
C69    C     0.71129   0.44327   0.30992   0.00000  Uiso   1.00
H70    H     0.69038   0.20861   0.20570   0.00000  Uiso   1.00
H71    H     0.56881   0.21124   0.12266   0.00000  Uiso   1.00
H72    H     0.85516   0.13559   0.19712   0.00000  Uiso   1.00
H73    H     0.63506   0.25981   0.30159   0.00000  Uiso   1.00
H74    H     0.45322   0.24436   0.02387   0.00000  Uiso   1.00
H75    H     0.05702   0.08485   0.18089   0.00000  Uiso   1.00
H76    H     0.59290   0.34679   0.40118   0.00000  Uiso   1.00
H77    H     0.83808   0.44143   0.15399   0.00000  Uiso   1.00
H78    H     0.72461   0.45684   0.06812   0.00000  Uiso   1.00
H79    H     0.01097   0.38119   0.14257   0.00000  Uiso   1.00
H80    H     0.79087   0.50540   0.24704   0.00000  Uiso   1.00
H81    H     0.57968   0.44370   0.97960   0.00000  Uiso   1.00
H82    H     0.18348   0.28419   0.13662   0.00000  Uiso   1.00
H83    H     0.71936   0.54612   0.35691   0.00000  Uiso   1.00
O84    O     0.43917   0.34996   0.94617   0.00000  Uiso   1.00
O85    O     0.23132   0.14068   0.15218   0.00000  Uiso   1.00
O86    O     0.62241   0.48434   0.44119   0.00000  Uiso   1.00
N87    N     0.49854   0.28917   0.02525   0.00000  Uiso   1.00
N88    N     0.06305   0.14003   0.17204   0.00000  Uiso   1.00
N89    N     0.62916   0.38491   0.37800   0.00000  Uiso   1.00
N90    N     0.56659   0.39643   0.00142   0.00000  Uiso   1.00
N91    N     0.13110   0.24729   0.14822   0.00000  Uiso   1.00
N92    N     0.69721   0.49218   0.35418   0.00000  Uiso   1.00
C93    C     0.22421   0.23805   0.80615   0.00000  Uiso   1.00
C94    C     0.17864   0.20433   0.85843   0.00000  Uiso   1.00
C95    C     0.10242   0.23573   0.88912   0.00000  Uiso   1.00
C96    C     0.07117   0.19615   0.93564   0.00000  Uiso   1.00
C97    C     0.99383   0.15423   0.01452   0.00000  Uiso   1.00
C98    C     0.33422   0.24544   0.81798   0.00000  Uiso   1.00
C99    C     0.38882   0.31140   0.81466   0.00000  Uiso   1.00
C100   C     0.48854   0.30642   0.82712   0.00000  Uiso   1.00
C101   C     0.65276   0.32831   0.84317   0.00000  Uiso   1.00
C102   C     0.21463   0.17795   0.76123   0.00000  Uiso   1.00
C103   C     0.16869   0.18717   0.71017   0.00000  Uiso   1.00
C104   C     0.16774   0.12536   0.67484   0.00000  Uiso   1.00
C105   C     0.14627   0.04246   0.60276   0.00000  Uiso   1.00
C106   C     0.30424   0.11191   0.83416   0.00000  Uiso   1.00
C107   C     0.22211   0.13582   0.87365   0.00000  Uiso   1.00
C108   C     0.19096   0.09618   0.92012   0.00000  Uiso   1.00
C109   C     0.11471   0.12751   0.95088   0.00000  Uiso   1.00
C110   C     0.37769   0.17693   0.83320   0.00000  Uiso   1.00
C111   C     0.47736   0.17184   0.84566   0.00000  Uiso   1.00
C112   C     0.53209   0.23778   0.84236   0.00000  Uiso   1.00
C113   C     0.25809   0.10943   0.77644   0.00000  Uiso   1.00
C114   C     0.25722   0.04761   0.74117   0.00000  Uiso   1.00
C115   C     0.21129   0.05673   0.69008   0.00000  Uiso   1.00
H116   H     0.19038   0.29139   0.79430   0.00000  Uiso   1.00
H117   H     0.06881   0.28876   0.87734   0.00000  Uiso   1.00
H118   H     0.35516   0.36441   0.80288   0.00000  Uiso   1.00
H119   H     0.13506   0.24019   0.69841   0.00000  Uiso   1.00
H120   H     0.95322   0.25564   0.97613   0.00000  Uiso   1.00
H121   H     0.55702   0.41515   0.81911   0.00000  Uiso   1.00
H122   H     0.09290   0.15321   0.59882   0.00000  Uiso   1.00
H123   H     0.33808   0.05857   0.84601   0.00000  Uiso   1.00
H124   H     0.22461   0.04316   0.93188   0.00000  Uiso   1.00
H125   H     0.51097   0.11881   0.85743   0.00000  Uiso   1.00
H126   H     0.29087   0.99460   0.75296   0.00000  Uiso   1.00
H127   H     0.07968   0.05630   0.02040   0.00000  Uiso   1.00
H128   H     0.68348   0.21581   0.86338   0.00000  Uiso   1.00
H129   H     0.21936   0.95388   0.64309   0.00000  Uiso   1.00
O130   O     0.93917   0.15004   0.05383   0.00000  Uiso   1.00
O131   O     0.73132   0.35932   0.84782   0.00000  Uiso   1.00
O132   O     0.12241   0.01566   0.55881   0.00000  Uiso   1.00
N133   N     0.99854   0.21083   0.97475   0.00000  Uiso   1.00
N134   N     0.56305   0.35997   0.82796   0.00000  Uiso   1.00
N135   N     0.12916   0.11509   0.62200   0.00000  Uiso   1.00
N136   N     0.06659   0.10357   0.99858   0.00000  Uiso   1.00
N137   N     0.63110   0.25271   0.85178   0.00000  Uiso   1.00
N138   N     0.19721   0.00782   0.64582   0.00000  Uiso   1.00
C139   C     0.27579   0.26195   0.30615   0.00000  Uiso   1.00
C140   C     0.32136   0.29567   0.35843   0.00000  Uiso   1.00
C141   C     0.39758   0.26427   0.38912   0.00000  Uiso   1.00
C142   C     0.42883   0.30385   0.43564   0.00000  Uiso   1.00
C143   C     0.50617   0.34577   0.51452   0.00000  Uiso   1.00
C144   C     0.16578   0.25456   0.31798   0.00000  Uiso   1.00
C145   C     0.11118   0.18860   0.31466   0.00000  Uiso   1.00
C146   C     0.01146   0.19358   0.32712   0.00000  Uiso   1.00
C147   C     0.84724   0.17169   0.34317   0.00000  Uiso   1.00
C148   C     0.28537   0.32205   0.26123   0.00000  Uiso   1.00
C149   C     0.33131   0.31283   0.21017   0.00000  Uiso   1.00
C150   C     0.33226   0.37464   0.17484   0.00000  Uiso   1.00
C151   C     0.35373   0.45754   0.10276   0.00000  Uiso   1.00
C152   C     0.19576   0.38809   0.33416   0.00000  Uiso   1.00
C153   C     0.27789   0.36418   0.37365   0.00000  Uiso   1.00
C154   C     0.30904   0.40382   0.42012   0.00000  Uiso   1.00
C155   C     0.38529   0.37249   0.45088   0.00000  Uiso   1.00
C156   C     0.12231   0.32307   0.33320   0.00000  Uiso   1.00
C157   C     0.02264   0.32816   0.34566   0.00000  Uiso   1.00
C158   C     0.96791   0.26222   0.34236   0.00000  Uiso   1.00
C159   C     0.24191   0.39057   0.27644   0.00000  Uiso   1.00
C160   C     0.24278   0.45239   0.24117   0.00000  Uiso   1.00
C161   C     0.28871   0.44327   0.19008   0.00000  Uiso   1.00
H162   H     0.30962   0.20861   0.29430   0.00000  Uiso   1.00
H163   H     0.43119   0.21124   0.37734   0.00000  Uiso   1.00
H164   H     0.14484   0.13559   0.30288   0.00000  Uiso   1.00
H165   H     0.36494   0.25981   0.19841   0.00000  Uiso   1.00
H166   H     0.54678   0.24436   0.47613   0.00000  Uiso   1.00
H167   H     0.94298   0.08485   0.31911   0.00000  Uiso   1.00
H168   H     0.40710   0.34679   0.09882   0.00000  Uiso   1.00
H169   H     0.16192   0.44143   0.34601   0.00000  Uiso   1.00
H170   H     0.27539   0.45684   0.43188   0.00000  Uiso   1.00
H171   H     0.98903   0.38119   0.35743   0.00000  Uiso   1.00
H172   H     0.20913   0.50540   0.25296   0.00000  Uiso   1.00
H173   H     0.42032   0.44370   0.52040   0.00000  Uiso   1.00
H174   H     0.81652   0.28419   0.36338   0.00000  Uiso   1.00
H175   H     0.28064   0.54612   0.14309   0.00000  Uiso   1.00
O176   O     0.56083   0.34996   0.55383   0.00000  Uiso   1.00
O177   O     0.76868   0.14068   0.34782   0.00000  Uiso   1.00
O178   O     0.37759   0.48434   0.05881   0.00000  Uiso   1.00
N179   N     0.50146   0.28917   0.47475   0.00000  Uiso   1.00
N180   N     0.93695   0.14003   0.32796   0.00000  Uiso   1.00
N181   N     0.37084   0.38491   0.12200   0.00000  Uiso   1.00
N182   N     0.43341   0.39643   0.49858   0.00000  Uiso   1.00
N183   N     0.86890   0.24729   0.35178   0.00000  Uiso   1.00
N184   N     0.30279   0.49218   0.14582   0.00000  Uiso   1.00
C185   C     0.22421   0.76195   0.30615   0.00000  Uiso   1.00
C186   C     0.17864   0.79567   0.35843   0.00000  Uiso   1.00
C187   C     0.10242   0.76427   0.38912   0.00000  Uiso   1.00
C188   C     0.07117   0.80385   0.43564   0.00000  Uiso   1.00
C189   C     0.99383   0.84577   0.51452   0.00000  Uiso   1.00
C190   C     0.33422   0.75456   0.31798   0.00000  Uiso   1.00
C191   C     0.38882   0.68860   0.31466   0.00000  Uiso   1.00
C192   C     0.48854   0.69358   0.32712   0.00000  Uiso   1.00
C193   C     0.65276   0.67169   0.34317   0.00000  Uiso   1.00
C194   C     0.21463   0.82205   0.26123   0.00000  Uiso   1.00
C195   C     0.16869   0.81283   0.21017   0.00000  Uiso   1.00
C196   C     0.16774   0.87464   0.17484   0.00000  Uiso   1.00
C197   C     0.14627   0.95754   0.10276   0.00000  Uiso   1.00
C198   C     0.30424   0.88809   0.33416   0.00000  Uiso   1.00
C199   C     0.22211   0.86418   0.37365   0.00000  Uiso   1.00
C200   C     0.19096   0.90382   0.42012   0.00000  Uiso   1.00
C201   C     0.11471   0.87249   0.45088   0.00000  Uiso   1.00
C202   C     0.37769   0.82307   0.33320   0.00000  Uiso   1.00
C203   C     0.47736   0.82816   0.34566   0.00000  Uiso   1.00
C204   C     0.53209   0.76222   0.34236   0.00000  Uiso   1.00
C205   C     0.25809   0.89057   0.27644   0.00000  Uiso   1.00
C206   C     0.25722   0.95239   0.24117   0.00000  Uiso   1.00
C207   C     0.21129   0.94327   0.19008   0.00000  Uiso   1.00
H208   H     0.19038   0.70861   0.29430   0.00000  Uiso   1.00
H209   H     0.06881   0.71124   0.37734   0.00000  Uiso   1.00
H210   H     0.35516   0.63559   0.30288   0.00000  Uiso   1.00
H211   H     0.13506   0.75981   0.19841   0.00000  Uiso   1.00
H212   H     0.95322   0.74436   0.47613   0.00000  Uiso   1.00
H213   H     0.55702   0.58485   0.31911   0.00000  Uiso   1.00
H214   H     0.09290   0.84679   0.09882   0.00000  Uiso   1.00
H215   H     0.33808   0.94143   0.34601   0.00000  Uiso   1.00
H216   H     0.22461   0.95684   0.43188   0.00000  Uiso   1.00
H217   H     0.51097   0.88119   0.35743   0.00000  Uiso   1.00
H218   H     0.29087   0.00540   0.25296   0.00000  Uiso   1.00
H219   H     0.07968   0.94370   0.52040   0.00000  Uiso   1.00
H220   H     0.68348   0.78419   0.36338   0.00000  Uiso   1.00
H221   H     0.21936   0.04612   0.14309   0.00000  Uiso   1.00
O222   O     0.93917   0.84996   0.55383   0.00000  Uiso   1.00
O223   O     0.73132   0.64068   0.34782   0.00000  Uiso   1.00
O224   O     0.12241   0.98434   0.05881   0.00000  Uiso   1.00
N225   N     0.99854   0.78917   0.47475   0.00000  Uiso   1.00
N226   N     0.56305   0.64003   0.32796   0.00000  Uiso   1.00
N227   N     0.12916   0.88491   0.12200   0.00000  Uiso   1.00
N228   N     0.06659   0.89643   0.49858   0.00000  Uiso   1.00
N229   N     0.63110   0.74729   0.35178   0.00000  Uiso   1.00
N230   N     0.19721   0.99218   0.14582   0.00000  Uiso   1.00
C231   C     0.27579   0.73805   0.80615   0.00000  Uiso   1.00
C232   C     0.32136   0.70433   0.85843   0.00000  Uiso   1.00
C233   C     0.39758   0.73573   0.88912   0.00000  Uiso   1.00
C234   C     0.42883   0.69615   0.93564   0.00000  Uiso   1.00
C235   C     0.50617   0.65423   0.01452   0.00000  Uiso   1.00
C236   C     0.16578   0.74544   0.81798   0.00000  Uiso   1.00
C237   C     0.11118   0.81140   0.81466   0.00000  Uiso   1.00
C238   C     0.01146   0.80642   0.82712   0.00000  Uiso   1.00
C239   C     0.84724   0.82831   0.84317   0.00000  Uiso   1.00
C240   C     0.28537   0.67795   0.76123   0.00000  Uiso   1.00
C241   C     0.33131   0.68717   0.71017   0.00000  Uiso   1.00
C242   C     0.33226   0.62536   0.67484   0.00000  Uiso   1.00
C243   C     0.35373   0.54246   0.60276   0.00000  Uiso   1.00
C244   C     0.19576   0.61191   0.83416   0.00000  Uiso   1.00
C245   C     0.27789   0.63582   0.87365   0.00000  Uiso   1.00
C246   C     0.30904   0.59618   0.92012   0.00000  Uiso   1.00
C247   C     0.38529   0.62751   0.95088   0.00000  Uiso   1.00
C248   C     0.12231   0.67693   0.83320   0.00000  Uiso   1.00
C249   C     0.02264   0.67184   0.84566   0.00000  Uiso   1.00
C250   C     0.96791   0.73778   0.84236   0.00000  Uiso   1.00
C251   C     0.24191   0.60943   0.77644   0.00000  Uiso   1.00
C252   C     0.24278   0.54761   0.74117   0.00000  Uiso   1.00
C253   C     0.28871   0.55673   0.69008   0.00000  Uiso   1.00
H254   H     0.30962   0.79139   0.79430   0.00000  Uiso   1.00
H255   H     0.43119   0.78876   0.87734   0.00000  Uiso   1.00
H256   H     0.14484   0.86441   0.80288   0.00000  Uiso   1.00
H257   H     0.36494   0.74019   0.69841   0.00000  Uiso   1.00
H258   H     0.54678   0.75564   0.97613   0.00000  Uiso   1.00
H259   H     0.94298   0.91515   0.81911   0.00000  Uiso   1.00
H260   H     0.40710   0.65321   0.59882   0.00000  Uiso   1.00
H261   H     0.16192   0.55857   0.84601   0.00000  Uiso   1.00
H262   H     0.27539   0.54316   0.93188   0.00000  Uiso   1.00
H263   H     0.98903   0.61881   0.85743   0.00000  Uiso   1.00
H264   H     0.20913   0.49460   0.75296   0.00000  Uiso   1.00
H265   H     0.42032   0.55630   0.02040   0.00000  Uiso   1.00
H266   H     0.81652   0.71581   0.86338   0.00000  Uiso   1.00
H267   H     0.28064   0.45388   0.64309   0.00000  Uiso   1.00
O268   O     0.56083   0.65004   0.05383   0.00000  Uiso   1.00
O269   O     0.76868   0.85932   0.84782   0.00000  Uiso   1.00
O270   O     0.37759   0.51566   0.55881   0.00000  Uiso   1.00
N271   N     0.50146   0.71083   0.97475   0.00000  Uiso   1.00
N272   N     0.93695   0.85997   0.82796   0.00000  Uiso   1.00
N273   N     0.37084   0.61509   0.62200   0.00000  Uiso   1.00
N274   N     0.43341   0.60357   0.99858   0.00000  Uiso   1.00
N275   N     0.86890   0.75271   0.85178   0.00000  Uiso   1.00
N276   N     0.30279   0.50782   0.64582   0.00000  Uiso   1.00
C277   C     0.77579   0.76195   0.19385   0.00000  Uiso   1.00
C278   C     0.82136   0.79567   0.14157   0.00000  Uiso   1.00
C279   C     0.89758   0.76427   0.11088   0.00000  Uiso   1.00
C280   C     0.92883   0.80385   0.06436   0.00000  Uiso   1.00
C281   C     0.00617   0.84577   0.98548   0.00000  Uiso   1.00
C282   C     0.66578   0.75456   0.18202   0.00000  Uiso   1.00
C283   C     0.61118   0.68860   0.18534   0.00000  Uiso   1.00
C284   C     0.51146   0.69358   0.17288   0.00000  Uiso   1.00
C285   C     0.34724   0.67169   0.15683   0.00000  Uiso   1.00
C286   C     0.78537   0.82205   0.23877   0.00000  Uiso   1.00
C287   C     0.83131   0.81283   0.28983   0.00000  Uiso   1.00
C288   C     0.83226   0.87464   0.32516   0.00000  Uiso   1.00
C289   C     0.85373   0.95754   0.39724   0.00000  Uiso   1.00
C290   C     0.69576   0.88809   0.16584   0.00000  Uiso   1.00
C291   C     0.77789   0.86418   0.12635   0.00000  Uiso   1.00
C292   C     0.80904   0.90382   0.07988   0.00000  Uiso   1.00
C293   C     0.88529   0.87249   0.04912   0.00000  Uiso   1.00
C294   C     0.62231   0.82307   0.16680   0.00000  Uiso   1.00
C295   C     0.52264   0.82816   0.15434   0.00000  Uiso   1.00
C296   C     0.46791   0.76222   0.15764   0.00000  Uiso   1.00
C297   C     0.74191   0.89057   0.22356   0.00000  Uiso   1.00
C298   C     0.74278   0.95239   0.25883   0.00000  Uiso   1.00
C299   C     0.78871   0.94327   0.30992   0.00000  Uiso   1.00
H300   H     0.80962   0.70861   0.20570   0.00000  Uiso   1.00
H301   H     0.93119   0.71124   0.12266   0.00000  Uiso   1.00
H302   H     0.64484   0.63559   0.19712   0.00000  Uiso   1.00
H303   H     0.86494   0.75981   0.30159   0.00000  Uiso   1.00
H304   H     0.04678   0.74436   0.02387   0.00000  Uiso   1.00
H305   H     0.44298   0.58485   0.18089   0.00000  Uiso   1.00
H306   H     0.90710   0.84679   0.40118   0.00000  Uiso   1.00
H307   H     0.66192   0.94143   0.15399   0.00000  Uiso   1.00
H308   H     0.77539   0.95684   0.06812   0.00000  Uiso   1.00
H309   H     0.48903   0.88119   0.14257   0.00000  Uiso   1.00
H310   H     0.70913   0.00540   0.24704   0.00000  Uiso   1.00
H311   H     0.92032   0.94370   0.97960   0.00000  Uiso   1.00
H312   H     0.31652   0.78419   0.13662   0.00000  Uiso   1.00
H313   H     0.78064   0.04612   0.35691   0.00000  Uiso   1.00
O314   O     0.06083   0.84996   0.94617   0.00000  Uiso   1.00
O315   O     0.26868   0.64068   0.15218   0.00000  Uiso   1.00
O316   O     0.87759   0.98434   0.44119   0.00000  Uiso   1.00
N317   N     0.00146   0.78917   0.02525   0.00000  Uiso   1.00
N318   N     0.43695   0.64003   0.17204   0.00000  Uiso   1.00
N319   N     0.87084   0.88491   0.37800   0.00000  Uiso   1.00
N320   N     0.93341   0.89643   0.00142   0.00000  Uiso   1.00
N321   N     0.36890   0.74729   0.14822   0.00000  Uiso   1.00
N322   N     0.80279   0.99218   0.35418   0.00000  Uiso   1.00
C323   C     0.72421   0.73805   0.69385   0.00000  Uiso   1.00
C324   C     0.67864   0.70433   0.64157   0.00000  Uiso   1.00
C325   C     0.60242   0.73573   0.61088   0.00000  Uiso   1.00
C326   C     0.57117   0.69615   0.56436   0.00000  Uiso   1.00
C327   C     0.49383   0.65423   0.48548   0.00000  Uiso   1.00
C328   C     0.83422   0.74544   0.68202   0.00000  Uiso   1.00
C329   C     0.88882   0.81140   0.68534   0.00000  Uiso   1.00
C330   C     0.98854   0.80642   0.67288   0.00000  Uiso   1.00
C331   C     0.15276   0.82831   0.65683   0.00000  Uiso   1.00
C332   C     0.71463   0.67795   0.73877   0.00000  Uiso   1.00
C333   C     0.66869   0.68717   0.78983   0.00000  Uiso   1.00
C334   C     0.66774   0.62536   0.82516   0.00000  Uiso   1.00
C335   C     0.64627   0.54246   0.89724   0.00000  Uiso   1.00
C336   C     0.80424   0.61191   0.66584   0.00000  Uiso   1.00
C337   C     0.72211   0.63582   0.62635   0.00000  Uiso   1.00
C338   C     0.69096   0.59618   0.57988   0.00000  Uiso   1.00
C339   C     0.61471   0.62751   0.54912   0.00000  Uiso   1.00
C340   C     0.87769   0.67693   0.66680   0.00000  Uiso   1.00
C341   C     0.97736   0.67184   0.65434   0.00000  Uiso   1.00
C342   C     0.03209   0.73778   0.65764   0.00000  Uiso   1.00
C343   C     0.75809   0.60943   0.72356   0.00000  Uiso   1.00
C344   C     0.75722   0.54761   0.75883   0.00000  Uiso   1.00
C345   C     0.71129   0.55673   0.80992   0.00000  Uiso   1.00
H346   H     0.69038   0.79139   0.70570   0.00000  Uiso   1.00
H347   H     0.56881   0.78876   0.62266   0.00000  Uiso   1.00
H348   H     0.85516   0.86441   0.69712   0.00000  Uiso   1.00
H349   H     0.63506   0.74019   0.80159   0.00000  Uiso   1.00
H350   H     0.45322   0.75564   0.52387   0.00000  Uiso   1.00
H351   H     0.05702   0.91515   0.68089   0.00000  Uiso   1.00
H352   H     0.59290   0.65321   0.90118   0.00000  Uiso   1.00
H353   H     0.83808   0.55857   0.65399   0.00000  Uiso   1.00
H354   H     0.72461   0.54316   0.56812   0.00000  Uiso   1.00
H355   H     0.01097   0.61881   0.64257   0.00000  Uiso   1.00
H356   H     0.79087   0.49460   0.74704   0.00000  Uiso   1.00
H357   H     0.57968   0.55630   0.47960   0.00000  Uiso   1.00
H358   H     0.18348   0.71581   0.63662   0.00000  Uiso   1.00
H359   H     0.71936   0.45388   0.85691   0.00000  Uiso   1.00
O360   O     0.43917   0.65004   0.44617   0.00000  Uiso   1.00
O361   O     0.23132   0.85932   0.65218   0.00000  Uiso   1.00
O362   O     0.62241   0.51566   0.94119   0.00000  Uiso   1.00
N363   N     0.49854   0.71083   0.52525   0.00000  Uiso   1.00
N364   N     0.06305   0.85997   0.67204   0.00000  Uiso   1.00
N365   N     0.62916   0.61509   0.87800   0.00000  Uiso   1.00
N366   N     0.56659   0.60357   0.50142   0.00000  Uiso   1.00
N367   N     0.13110   0.75271   0.64822   0.00000  Uiso   1.00
N368   N     0.69721   0.50782   0.85418   0.00000  Uiso   1.00
