data_job_03109
_audit_creation_date              2018-12-19
_audit_creation_method            'Materials Studio'
_symmetry_space_group_name_H-M    'P1'
_symmetry_Int_Tables_number       1
_symmetry_cell_setting            triclinic
loop_
_symmetry_equiv_pos_as_xyz
  x,y,z
_cell_length_a                    9.1506
_cell_length_b                    30.4624
_cell_length_c                    11.2595
_cell_angle_alpha                 90.0000
_cell_angle_beta                  68.7763
_cell_angle_gamma                 90.0000
loop_
_atom_site_label
_atom_site_type_symbol
_atom_site_fract_x
_atom_site_fract_y
_atom_site_fract_z
_atom_site_U_iso_or_equiv
_atom_site_adp_type
_atom_site_occupancy
C1     C     0.01537   0.15981   0.85599   0.00000  Uiso   1.00
C2     C     0.98851   0.16271   0.99757   0.00000  Uiso   1.00
C3     C     0.06441   0.19117   0.05241   0.00000  Uiso   1.00
C4     C     0.02336   0.18872   0.18363   0.00000  Uiso   1.00
C5     C     0.99888   0.19774   0.39225   0.00000  Uiso   1.00
C6     C     0.05969   0.11222   0.81771   0.00000  Uiso   1.00
C7     C     0.19543   0.09824   0.72132   0.00000  Uiso   1.00
C8     C     0.21428   0.05329   0.70112   0.00000  Uiso   1.00
C9     C     0.30026   0.98393   0.63045   0.00000  Uiso   1.00
C10    C     0.85546   0.16684   0.84556   0.00000  Uiso   1.00
C11    C     0.81949   0.19878   0.77257   0.00000  Uiso   1.00
C12    C     0.66639   0.19981   0.77580   0.00000  Uiso   1.00
C13    C     0.43528   0.21526   0.74838   0.00000  Uiso   1.00
C14    C     0.80748   0.10486   0.99150   0.00000  Uiso   1.00
C15    C     0.87559   0.13286   0.07116   0.00000  Uiso   1.00
C16    C     0.83441   0.13037   0.20233   0.00000  Uiso   1.00
C17    C     0.91023   0.15882   0.25737   0.00000  Uiso   1.00
C18    C     0.94678   0.08237   0.89130   0.00000  Uiso   1.00
C19    C     0.96543   0.03743   0.87124   0.00000  Uiso   1.00
C20    C     0.10116   0.02338   0.77485   0.00000  Uiso   1.00
C21    C     0.74254   0.13699   0.91917   0.00000  Uiso   1.00
C22    C     0.58948   0.13798   0.92250   0.00000  Uiso   1.00
C23    C     0.55328   0.16991   0.84953   0.00000  Uiso   1.00
H24    H     0.10328   0.18305   0.79869   0.00000  Uiso   1.00
H25    H     0.15180   0.21426   0.99542   0.00000  Uiso   1.00
H26    H     0.28278   0.12134   0.66437   0.00000  Uiso   1.00
H27    H     0.90690   0.22187   0.71563   0.00000  Uiso   1.00
H28    H     0.15583   0.23569   0.24599   0.00000  Uiso   1.00
H29    H     0.43200   0.03977   0.54793   0.00000  Uiso   1.00
H30    H     0.63937   0.25175   0.65599   0.00000  Uiso   1.00
H31    H     0.71957   0.08162   0.04880   0.00000  Uiso   1.00
H32    H     0.74702   0.10726   0.25926   0.00000  Uiso   1.00
H33    H     0.87802   0.01435   0.92821   0.00000  Uiso   1.00
H34    H     0.50213   0.11487   0.97947   0.00000  Uiso   1.00
H35    H     0.82731   0.14884   0.46013   0.00000  Uiso   1.00
H36    H     0.10347   0.95293   0.76206   0.00000  Uiso   1.00
H37    H     0.31084   0.16491   0.87014   0.00000  Uiso   1.00
O38    O     0.01659   0.21096   0.48699   0.00000  Uiso   1.00
O39    O     0.37890   0.95392   0.57114   0.00000  Uiso   1.00
O40    O     0.33899   0.23204   0.71294   0.00000  Uiso   1.00
N41    N     0.07472   0.21174   0.26751   0.00000  Uiso   1.00
N42    N     0.33293   0.02856   0.61487   0.00000  Uiso   1.00
N43    N     0.59190   0.22674   0.71588   0.00000  Uiso   1.00
N44    N     0.89794   0.16501   0.38273   0.00000  Uiso   1.00
N45    N     0.15616   0.98183   0.73010   0.00000  Uiso   1.00
N46    N     0.41512   0.18001   0.83111   0.00000  Uiso   1.00
C47    C     0.98463   0.65981   0.64401   0.00000  Uiso   1.00
C48    C     0.01149   0.66271   0.50243   0.00000  Uiso   1.00
C49    C     0.93559   0.69117   0.44759   0.00000  Uiso   1.00
C50    C     0.97664   0.68872   0.31637   0.00000  Uiso   1.00
C51    C     0.00112   0.69774   0.10775   0.00000  Uiso   1.00
C52    C     0.94031   0.61222   0.68229   0.00000  Uiso   1.00
C53    C     0.80457   0.59824   0.77868   0.00000  Uiso   1.00
C54    C     0.78572   0.55329   0.79888   0.00000  Uiso   1.00
C55    C     0.69974   0.48393   0.86955   0.00000  Uiso   1.00
C56    C     0.14454   0.66684   0.65444   0.00000  Uiso   1.00
C57    C     0.18051   0.69878   0.72743   0.00000  Uiso   1.00
C58    C     0.33361   0.69981   0.72420   0.00000  Uiso   1.00
C59    C     0.56472   0.71526   0.75162   0.00000  Uiso   1.00
C60    C     0.19252   0.60486   0.50850   0.00000  Uiso   1.00
C61    C     0.12441   0.63286   0.42884   0.00000  Uiso   1.00
C62    C     0.16559   0.63037   0.29767   0.00000  Uiso   1.00
C63    C     0.08977   0.65882   0.24263   0.00000  Uiso   1.00
C64    C     0.05322   0.58237   0.60870   0.00000  Uiso   1.00
C65    C     0.03457   0.53743   0.62876   0.00000  Uiso   1.00
C66    C     0.89884   0.52338   0.72515   0.00000  Uiso   1.00
C67    C     0.25746   0.63699   0.58083   0.00000  Uiso   1.00
C68    C     0.41052   0.63798   0.57750   0.00000  Uiso   1.00
C69    C     0.44672   0.66991   0.65047   0.00000  Uiso   1.00
H70    H     0.89672   0.68305   0.70131   0.00000  Uiso   1.00
H71    H     0.84820   0.71426   0.50458   0.00000  Uiso   1.00
H72    H     0.71722   0.62134   0.83563   0.00000  Uiso   1.00
H73    H     0.09310   0.72187   0.78437   0.00000  Uiso   1.00
H74    H     0.84417   0.73569   0.25401   0.00000  Uiso   1.00
H75    H     0.56800   0.53977   0.95207   0.00000  Uiso   1.00
H76    H     0.36063   0.75175   0.84401   0.00000  Uiso   1.00
H77    H     0.28043   0.58162   0.45120   0.00000  Uiso   1.00
H78    H     0.25298   0.60726   0.24074   0.00000  Uiso   1.00
H79    H     0.12198   0.51435   0.57179   0.00000  Uiso   1.00
H80    H     0.49787   0.61487   0.52053   0.00000  Uiso   1.00
H81    H     0.17269   0.64884   0.03987   0.00000  Uiso   1.00
H82    H     0.89653   0.45293   0.73794   0.00000  Uiso   1.00
H83    H     0.68916   0.66491   0.62986   0.00000  Uiso   1.00
O84    O     0.98341   0.71096   0.01301   0.00000  Uiso   1.00
O85    O     0.62110   0.45392   0.92886   0.00000  Uiso   1.00
O86    O     0.66101   0.73204   0.78706   0.00000  Uiso   1.00
N87    N     0.92528   0.71174   0.23249   0.00000  Uiso   1.00
N88    N     0.66707   0.52856   0.88513   0.00000  Uiso   1.00
N89    N     0.40810   0.72674   0.78412   0.00000  Uiso   1.00
N90    N     0.10206   0.66501   0.11727   0.00000  Uiso   1.00
N91    N     0.84384   0.48183   0.76990   0.00000  Uiso   1.00
N92    N     0.58488   0.68001   0.66889   0.00000  Uiso   1.00
C93    C     0.98463   0.84019   0.14401   0.00000  Uiso   1.00
C94    C     0.01149   0.83729   0.00243   0.00000  Uiso   1.00
C95    C     0.93559   0.80883   0.94759   0.00000  Uiso   1.00
C96    C     0.97664   0.81128   0.81637   0.00000  Uiso   1.00
C97    C     0.00112   0.80226   0.60775   0.00000  Uiso   1.00
C98    C     0.94031   0.88778   0.18229   0.00000  Uiso   1.00
C99    C     0.80457   0.90176   0.27868   0.00000  Uiso   1.00
C100   C     0.78572   0.94671   0.29888   0.00000  Uiso   1.00
C101   C     0.69974   0.01607   0.36955   0.00000  Uiso   1.00
C102   C     0.14454   0.83316   0.15444   0.00000  Uiso   1.00
C103   C     0.18051   0.80122   0.22743   0.00000  Uiso   1.00
C104   C     0.33361   0.80019   0.22420   0.00000  Uiso   1.00
C105   C     0.56472   0.78474   0.25162   0.00000  Uiso   1.00
C106   C     0.19252   0.89514   0.00850   0.00000  Uiso   1.00
C107   C     0.12441   0.86714   0.92884   0.00000  Uiso   1.00
C108   C     0.16559   0.86963   0.79767   0.00000  Uiso   1.00
C109   C     0.08977   0.84118   0.74263   0.00000  Uiso   1.00
C110   C     0.05322   0.91763   0.10870   0.00000  Uiso   1.00
C111   C     0.03457   0.96257   0.12876   0.00000  Uiso   1.00
C112   C     0.89884   0.97662   0.22515   0.00000  Uiso   1.00
C113   C     0.25746   0.86301   0.08083   0.00000  Uiso   1.00
C114   C     0.41052   0.86202   0.07750   0.00000  Uiso   1.00
C115   C     0.44672   0.83009   0.15047   0.00000  Uiso   1.00
H116   H     0.89672   0.81695   0.20131   0.00000  Uiso   1.00
H117   H     0.84820   0.78574   0.00458   0.00000  Uiso   1.00
H118   H     0.71722   0.87866   0.33563   0.00000  Uiso   1.00
H119   H     0.09310   0.77813   0.28437   0.00000  Uiso   1.00
H120   H     0.84417   0.76431   0.75401   0.00000  Uiso   1.00
H121   H     0.56800   0.96023   0.45207   0.00000  Uiso   1.00
H122   H     0.36063   0.74825   0.34401   0.00000  Uiso   1.00
H123   H     0.28043   0.91838   0.95120   0.00000  Uiso   1.00
H124   H     0.25298   0.89274   0.74074   0.00000  Uiso   1.00
H125   H     0.12198   0.98565   0.07179   0.00000  Uiso   1.00
H126   H     0.49787   0.88513   0.02053   0.00000  Uiso   1.00
H127   H     0.17269   0.85116   0.53987   0.00000  Uiso   1.00
H128   H     0.89653   0.04707   0.23794   0.00000  Uiso   1.00
H129   H     0.68916   0.83509   0.12986   0.00000  Uiso   1.00
O130   O     0.98341   0.78904   0.51301   0.00000  Uiso   1.00
O131   O     0.62110   0.04608   0.42886   0.00000  Uiso   1.00
O132   O     0.66101   0.76796   0.28706   0.00000  Uiso   1.00
N133   N     0.92528   0.78826   0.73249   0.00000  Uiso   1.00
N134   N     0.66707   0.97144   0.38513   0.00000  Uiso   1.00
N135   N     0.40810   0.77326   0.28412   0.00000  Uiso   1.00
N136   N     0.10206   0.83499   0.61727   0.00000  Uiso   1.00
N137   N     0.84384   0.01817   0.26990   0.00000  Uiso   1.00
N138   N     0.58488   0.81999   0.16889   0.00000  Uiso   1.00
C139   C     0.01537   0.34019   0.35599   0.00000  Uiso   1.00
C140   C     0.98851   0.33729   0.49757   0.00000  Uiso   1.00
C141   C     0.06441   0.30883   0.55241   0.00000  Uiso   1.00
C142   C     0.02336   0.31128   0.68363   0.00000  Uiso   1.00
C143   C     0.99888   0.30226   0.89225   0.00000  Uiso   1.00
C144   C     0.05969   0.38778   0.31771   0.00000  Uiso   1.00
C145   C     0.19543   0.40176   0.22132   0.00000  Uiso   1.00
C146   C     0.21428   0.44671   0.20112   0.00000  Uiso   1.00
C147   C     0.30026   0.51607   0.13045   0.00000  Uiso   1.00
C148   C     0.85546   0.33316   0.34556   0.00000  Uiso   1.00
C149   C     0.81949   0.30122   0.27257   0.00000  Uiso   1.00
C150   C     0.66639   0.30019   0.27580   0.00000  Uiso   1.00
C151   C     0.43528   0.28474   0.24838   0.00000  Uiso   1.00
C152   C     0.80748   0.39514   0.49150   0.00000  Uiso   1.00
C153   C     0.87559   0.36714   0.57116   0.00000  Uiso   1.00
C154   C     0.83441   0.36963   0.70233   0.00000  Uiso   1.00
C155   C     0.91023   0.34118   0.75737   0.00000  Uiso   1.00
C156   C     0.94678   0.41763   0.39130   0.00000  Uiso   1.00
C157   C     0.96543   0.46257   0.37124   0.00000  Uiso   1.00
C158   C     0.10116   0.47662   0.27485   0.00000  Uiso   1.00
C159   C     0.74254   0.36301   0.41917   0.00000  Uiso   1.00
C160   C     0.58948   0.36202   0.42250   0.00000  Uiso   1.00
C161   C     0.55328   0.33009   0.34953   0.00000  Uiso   1.00
H162   H     0.10328   0.31695   0.29869   0.00000  Uiso   1.00
H163   H     0.15180   0.28574   0.49542   0.00000  Uiso   1.00
H164   H     0.28278   0.37866   0.16437   0.00000  Uiso   1.00
H165   H     0.90690   0.27813   0.21563   0.00000  Uiso   1.00
H166   H     0.15583   0.26431   0.74599   0.00000  Uiso   1.00
H167   H     0.43200   0.46023   0.04793   0.00000  Uiso   1.00
H168   H     0.63937   0.24825   0.15599   0.00000  Uiso   1.00
H169   H     0.71957   0.41838   0.54880   0.00000  Uiso   1.00
H170   H     0.74702   0.39274   0.75926   0.00000  Uiso   1.00
H171   H     0.87802   0.48565   0.42821   0.00000  Uiso   1.00
H172   H     0.50213   0.38513   0.47947   0.00000  Uiso   1.00
H173   H     0.82731   0.35116   0.96013   0.00000  Uiso   1.00
H174   H     0.10347   0.54707   0.26206   0.00000  Uiso   1.00
H175   H     0.31084   0.33509   0.37014   0.00000  Uiso   1.00
O176   O     0.01659   0.28904   0.98699   0.00000  Uiso   1.00
O177   O     0.37890   0.54608   0.07114   0.00000  Uiso   1.00
O178   O     0.33899   0.26796   0.21294   0.00000  Uiso   1.00
N179   N     0.07472   0.28826   0.76751   0.00000  Uiso   1.00
N180   N     0.33293   0.47144   0.11487   0.00000  Uiso   1.00
N181   N     0.59190   0.27326   0.21588   0.00000  Uiso   1.00
N182   N     0.89794   0.33499   0.88273   0.00000  Uiso   1.00
N183   N     0.15616   0.51817   0.23010   0.00000  Uiso   1.00
N184   N     0.41512   0.31999   0.33111   0.00000  Uiso   1.00
