data_job_04158
_audit_creation_date              2018-12-19
_audit_creation_method            'Materials Studio'
_symmetry_space_group_name_H-M    'P1'
_symmetry_Int_Tables_number       1
_symmetry_cell_setting            triclinic
loop_
_symmetry_equiv_pos_as_xyz
  x,y,z
_cell_length_a                    21.7994
_cell_length_b                    12.1840
_cell_length_c                    20.1901
_cell_angle_alpha                 90.0000
_cell_angle_beta                  90.0000
_cell_angle_gamma                 90.0000
loop_
_atom_site_label
_atom_site_type_symbol
_atom_site_fract_x
_atom_site_fract_y
_atom_site_fract_z
_atom_site_U_iso_or_equiv
_atom_site_adp_type
_atom_site_occupancy
C1     C     0.17422   0.16718   0.24089   0.00000  Uiso   1.00
C2     C     0.12126   0.16496   0.19156   0.00000  Uiso   1.00
C3     C     0.08648   0.07353   0.17513   0.00000  Uiso   1.00
C4     C     0.04007   0.08844   0.12890   0.00000  Uiso   1.00
C5     C     0.95956   0.06936   0.05665   0.00000  Uiso   1.00
C6     C     0.22944   0.21141   0.20299   0.00000  Uiso   1.00
C7     C     0.28563   0.15903   0.19617   0.00000  Uiso   1.00
C8     C     0.33029   0.21306   0.15956   0.00000  Uiso   1.00
C9     C     0.41776   0.26612   0.10508   0.00000  Uiso   1.00
C10    C     0.15786   0.25475   0.29188   0.00000  Uiso   1.00
C11    C     0.15387   0.23883   0.35981   0.00000  Uiso   1.00
C12    C     0.13829   0.32935   0.39804   0.00000  Uiso   1.00
C13    C     0.11461   0.44970   0.48159   0.00000  Uiso   1.00
C14    C     0.15365   0.35625   0.18801   0.00000  Uiso   1.00
C15    C     0.11009   0.26766   0.16284   0.00000  Uiso   1.00
C16    C     0.06372   0.28272   0.11663   0.00000  Uiso   1.00
C17    C     0.02888   0.19132   0.10013   0.00000  Uiso   1.00
C18    C     0.21828   0.31410   0.17427   0.00000  Uiso   1.00
C19    C     0.26287   0.36822   0.13766   0.00000  Uiso   1.00
C20    C     0.31911   0.31594   0.13078   0.00000  Uiso   1.00
C21    C     0.14669   0.35744   0.26316   0.00000  Uiso   1.00
C22    C     0.13111   0.44801   0.30130   0.00000  Uiso   1.00
C23    C     0.12710   0.43223   0.36927   0.00000  Uiso   1.00
H24    H     0.18292   0.08723   0.26325   0.00000  Uiso   1.00
H25    H     0.09514   0.99407   0.19736   0.00000  Uiso   1.00
H26    H     0.29426   0.07957   0.21840   0.00000  Uiso   1.00
H27    H     0.16252   0.15934   0.38202   0.00000  Uiso   1.00
H28    H     0.99291   0.93606   0.11163   0.00000  Uiso   1.00
H29    H     0.41277   0.11635   0.15601   0.00000  Uiso   1.00
H30    H     0.13498   0.28458   0.50103   0.00000  Uiso   1.00
H31    H     0.14496   0.43621   0.16565   0.00000  Uiso   1.00
H32    H     0.05509   0.36220   0.09441   0.00000  Uiso   1.00
H33    H     0.25421   0.44769   0.11545   0.00000  Uiso   1.00
H34    H     0.12247   0.52747   0.27906   0.00000  Uiso   1.00
H35    H     0.96041   0.23484   0.02806   0.00000  Uiso   1.00
H36    H     0.38027   0.41514   0.07245   0.00000  Uiso   1.00
H37    H     0.10247   0.58337   0.41746   0.00000  Uiso   1.00
O38    O     0.91824   0.03046   0.02473   0.00000  Uiso   1.00
O39    O     0.46908   0.26700   0.08297   0.00000  Uiso   1.00
O40    O     0.10462   0.48771   0.53561   0.00000  Uiso   1.00
N41    N     0.99759   0.01654   0.10175   0.00000  Uiso   1.00
N42    N     0.39013   0.18510   0.14324   0.00000  Uiso   1.00
N43    N     0.13043   0.34238   0.46580   0.00000  Uiso   1.00
N44    N     0.98010   0.17731   0.05679   0.00000  Uiso   1.00
N45    N     0.37264   0.34587   0.09827   0.00000  Uiso   1.00
N46    N     0.11294   0.50316   0.42083   0.00000  Uiso   1.00
C47    C     0.32578   0.33282   0.74089   0.00000  Uiso   1.00
C48    C     0.37874   0.33504   0.69156   0.00000  Uiso   1.00
C49    C     0.41352   0.42647   0.67513   0.00000  Uiso   1.00
C50    C     0.45993   0.41156   0.62890   0.00000  Uiso   1.00
C51    C     0.54044   0.43064   0.55665   0.00000  Uiso   1.00
C52    C     0.27056   0.28859   0.70299   0.00000  Uiso   1.00
C53    C     0.21437   0.34097   0.69617   0.00000  Uiso   1.00
C54    C     0.16971   0.28694   0.65956   0.00000  Uiso   1.00
C55    C     0.08224   0.23388   0.60508   0.00000  Uiso   1.00
C56    C     0.34214   0.24525   0.79188   0.00000  Uiso   1.00
C57    C     0.34613   0.26117   0.85981   0.00000  Uiso   1.00
C58    C     0.36171   0.17065   0.89804   0.00000  Uiso   1.00
C59    C     0.38539   0.05030   0.98159   0.00000  Uiso   1.00
C60    C     0.34635   0.14375   0.68801   0.00000  Uiso   1.00
C61    C     0.38991   0.23234   0.66284   0.00000  Uiso   1.00
C62    C     0.43628   0.21728   0.61663   0.00000  Uiso   1.00
C63    C     0.47112   0.30868   0.60013   0.00000  Uiso   1.00
C64    C     0.28172   0.18590   0.67427   0.00000  Uiso   1.00
C65    C     0.23713   0.13178   0.63766   0.00000  Uiso   1.00
C66    C     0.18089   0.18406   0.63078   0.00000  Uiso   1.00
C67    C     0.35331   0.14256   0.76316   0.00000  Uiso   1.00
C68    C     0.36889   0.05199   0.80130   0.00000  Uiso   1.00
C69    C     0.37290   0.06777   0.86927   0.00000  Uiso   1.00
H70    H     0.31708   0.41277   0.76325   0.00000  Uiso   1.00
H71    H     0.40486   0.50593   0.69736   0.00000  Uiso   1.00
H72    H     0.20574   0.42043   0.71840   0.00000  Uiso   1.00
H73    H     0.33748   0.34066   0.88202   0.00000  Uiso   1.00
H74    H     0.50709   0.56394   0.61163   0.00000  Uiso   1.00
H75    H     0.08723   0.38365   0.65601   0.00000  Uiso   1.00
H76    H     0.36502   0.21542   0.00103   0.00000  Uiso   1.00
H77    H     0.35504   0.06379   0.66565   0.00000  Uiso   1.00
H78    H     0.44491   0.13780   0.59441   0.00000  Uiso   1.00
H79    H     0.24579   0.05231   0.61545   0.00000  Uiso   1.00
H80    H     0.37753   0.97253   0.77906   0.00000  Uiso   1.00
H81    H     0.53959   0.26516   0.52806   0.00000  Uiso   1.00
H82    H     0.11973   0.08486   0.57245   0.00000  Uiso   1.00
H83    H     0.39753   0.91663   0.91746   0.00000  Uiso   1.00
O84    O     0.58176   0.46954   0.52473   0.00000  Uiso   1.00
O85    O     0.03092   0.23300   0.58297   0.00000  Uiso   1.00
O86    O     0.39538   0.01229   0.03561   0.00000  Uiso   1.00
N87    N     0.50241   0.48346   0.60175   0.00000  Uiso   1.00
N88    N     0.10987   0.31490   0.64324   0.00000  Uiso   1.00
N89    N     0.36957   0.15762   0.96580   0.00000  Uiso   1.00
N90    N     0.51990   0.32269   0.55679   0.00000  Uiso   1.00
N91    N     0.12736   0.15413   0.59827   0.00000  Uiso   1.00
N92    N     0.38706   0.99684   0.92083   0.00000  Uiso   1.00
C93    C     0.82578   0.16718   0.25911   0.00000  Uiso   1.00
C94    C     0.87874   0.16496   0.30844   0.00000  Uiso   1.00
C95    C     0.91352   0.07353   0.32487   0.00000  Uiso   1.00
C96    C     0.95993   0.08844   0.37110   0.00000  Uiso   1.00
C97    C     0.04044   0.06936   0.44335   0.00000  Uiso   1.00
C98    C     0.77056   0.21141   0.29701   0.00000  Uiso   1.00
C99    C     0.71437   0.15903   0.30383   0.00000  Uiso   1.00
C100   C     0.66971   0.21306   0.34044   0.00000  Uiso   1.00
C101   C     0.58224   0.26612   0.39492   0.00000  Uiso   1.00
C102   C     0.84214   0.25475   0.20812   0.00000  Uiso   1.00
C103   C     0.84613   0.23883   0.14019   0.00000  Uiso   1.00
C104   C     0.86171   0.32935   0.10196   0.00000  Uiso   1.00
C105   C     0.88539   0.44970   0.01841   0.00000  Uiso   1.00
C106   C     0.84635   0.35625   0.31199   0.00000  Uiso   1.00
C107   C     0.88991   0.26766   0.33716   0.00000  Uiso   1.00
C108   C     0.93628   0.28272   0.38337   0.00000  Uiso   1.00
C109   C     0.97112   0.19132   0.39987   0.00000  Uiso   1.00
C110   C     0.78172   0.31410   0.32573   0.00000  Uiso   1.00
C111   C     0.73713   0.36822   0.36234   0.00000  Uiso   1.00
C112   C     0.68089   0.31594   0.36922   0.00000  Uiso   1.00
C113   C     0.85331   0.35744   0.23684   0.00000  Uiso   1.00
C114   C     0.86889   0.44801   0.19870   0.00000  Uiso   1.00
C115   C     0.87290   0.43223   0.13073   0.00000  Uiso   1.00
H116   H     0.81708   0.08723   0.23675   0.00000  Uiso   1.00
H117   H     0.90486   0.99407   0.30264   0.00000  Uiso   1.00
H118   H     0.70574   0.07957   0.28160   0.00000  Uiso   1.00
H119   H     0.83748   0.15934   0.11798   0.00000  Uiso   1.00
H120   H     0.00709   0.93606   0.38837   0.00000  Uiso   1.00
H121   H     0.58723   0.11635   0.34399   0.00000  Uiso   1.00
H122   H     0.86502   0.28458   0.99897   0.00000  Uiso   1.00
H123   H     0.85504   0.43621   0.33435   0.00000  Uiso   1.00
H124   H     0.94491   0.36220   0.40559   0.00000  Uiso   1.00
H125   H     0.74579   0.44769   0.38455   0.00000  Uiso   1.00
H126   H     0.87753   0.52747   0.22094   0.00000  Uiso   1.00
H127   H     0.03959   0.23484   0.47194   0.00000  Uiso   1.00
H128   H     0.61973   0.41514   0.42755   0.00000  Uiso   1.00
H129   H     0.89753   0.58337   0.08254   0.00000  Uiso   1.00
O130   O     0.08176   0.03046   0.47527   0.00000  Uiso   1.00
O131   O     0.53092   0.26700   0.41703   0.00000  Uiso   1.00
O132   O     0.89538   0.48771   0.96439   0.00000  Uiso   1.00
N133   N     0.00241   0.01654   0.39825   0.00000  Uiso   1.00
N134   N     0.60987   0.18510   0.35676   0.00000  Uiso   1.00
N135   N     0.86957   0.34238   0.03420   0.00000  Uiso   1.00
N136   N     0.01990   0.17731   0.44321   0.00000  Uiso   1.00
N137   N     0.62736   0.34587   0.40173   0.00000  Uiso   1.00
N138   N     0.88706   0.50316   0.07917   0.00000  Uiso   1.00
C139   C     0.67422   0.33282   0.75911   0.00000  Uiso   1.00
C140   C     0.62126   0.33504   0.80844   0.00000  Uiso   1.00
C141   C     0.58648   0.42647   0.82487   0.00000  Uiso   1.00
C142   C     0.54007   0.41156   0.87110   0.00000  Uiso   1.00
C143   C     0.45956   0.43064   0.94335   0.00000  Uiso   1.00
C144   C     0.72944   0.28859   0.79701   0.00000  Uiso   1.00
C145   C     0.78563   0.34097   0.80383   0.00000  Uiso   1.00
C146   C     0.83029   0.28694   0.84044   0.00000  Uiso   1.00
C147   C     0.91776   0.23388   0.89492   0.00000  Uiso   1.00
C148   C     0.65786   0.24525   0.70812   0.00000  Uiso   1.00
C149   C     0.65387   0.26117   0.64019   0.00000  Uiso   1.00
C150   C     0.63829   0.17065   0.60196   0.00000  Uiso   1.00
C151   C     0.61461   0.05030   0.51841   0.00000  Uiso   1.00
C152   C     0.65365   0.14375   0.81199   0.00000  Uiso   1.00
C153   C     0.61009   0.23234   0.83716   0.00000  Uiso   1.00
C154   C     0.56372   0.21728   0.88337   0.00000  Uiso   1.00
C155   C     0.52888   0.30868   0.89987   0.00000  Uiso   1.00
C156   C     0.71828   0.18590   0.82573   0.00000  Uiso   1.00
C157   C     0.76287   0.13178   0.86234   0.00000  Uiso   1.00
C158   C     0.81911   0.18406   0.86922   0.00000  Uiso   1.00
C159   C     0.64669   0.14256   0.73684   0.00000  Uiso   1.00
C160   C     0.63111   0.05199   0.69870   0.00000  Uiso   1.00
C161   C     0.62710   0.06777   0.63073   0.00000  Uiso   1.00
H162   H     0.68292   0.41277   0.73675   0.00000  Uiso   1.00
H163   H     0.59514   0.50593   0.80264   0.00000  Uiso   1.00
H164   H     0.79426   0.42043   0.78160   0.00000  Uiso   1.00
H165   H     0.66252   0.34066   0.61798   0.00000  Uiso   1.00
H166   H     0.49291   0.56394   0.88837   0.00000  Uiso   1.00
H167   H     0.91277   0.38365   0.84399   0.00000  Uiso   1.00
H168   H     0.63498   0.21542   0.49897   0.00000  Uiso   1.00
H169   H     0.64496   0.06379   0.83435   0.00000  Uiso   1.00
H170   H     0.55509   0.13780   0.90559   0.00000  Uiso   1.00
H171   H     0.75421   0.05231   0.88455   0.00000  Uiso   1.00
H172   H     0.62247   0.97253   0.72094   0.00000  Uiso   1.00
H173   H     0.46041   0.26516   0.97194   0.00000  Uiso   1.00
H174   H     0.88027   0.08486   0.92755   0.00000  Uiso   1.00
H175   H     0.60247   0.91663   0.58254   0.00000  Uiso   1.00
O176   O     0.41824   0.46954   0.97527   0.00000  Uiso   1.00
O177   O     0.96908   0.23300   0.91703   0.00000  Uiso   1.00
O178   O     0.60462   0.01229   0.46439   0.00000  Uiso   1.00
N179   N     0.49759   0.48346   0.89825   0.00000  Uiso   1.00
N180   N     0.89013   0.31490   0.85676   0.00000  Uiso   1.00
N181   N     0.63043   0.15762   0.53420   0.00000  Uiso   1.00
N182   N     0.48010   0.32269   0.94321   0.00000  Uiso   1.00
N183   N     0.87264   0.15413   0.90173   0.00000  Uiso   1.00
N184   N     0.61294   0.99684   0.57917   0.00000  Uiso   1.00
C185   C     0.82578   0.83282   0.75911   0.00000  Uiso   1.00
C186   C     0.87874   0.83504   0.80844   0.00000  Uiso   1.00
C187   C     0.91352   0.92647   0.82487   0.00000  Uiso   1.00
C188   C     0.95993   0.91156   0.87110   0.00000  Uiso   1.00
C189   C     0.04044   0.93064   0.94335   0.00000  Uiso   1.00
C190   C     0.77056   0.78859   0.79701   0.00000  Uiso   1.00
C191   C     0.71437   0.84097   0.80383   0.00000  Uiso   1.00
C192   C     0.66971   0.78694   0.84044   0.00000  Uiso   1.00
C193   C     0.58224   0.73388   0.89492   0.00000  Uiso   1.00
C194   C     0.84214   0.74525   0.70812   0.00000  Uiso   1.00
C195   C     0.84613   0.76117   0.64019   0.00000  Uiso   1.00
C196   C     0.86171   0.67065   0.60196   0.00000  Uiso   1.00
C197   C     0.88539   0.55030   0.51841   0.00000  Uiso   1.00
C198   C     0.84635   0.64375   0.81199   0.00000  Uiso   1.00
C199   C     0.88991   0.73234   0.83716   0.00000  Uiso   1.00
C200   C     0.93628   0.71728   0.88337   0.00000  Uiso   1.00
C201   C     0.97112   0.80868   0.89987   0.00000  Uiso   1.00
C202   C     0.78172   0.68590   0.82573   0.00000  Uiso   1.00
C203   C     0.73713   0.63178   0.86234   0.00000  Uiso   1.00
C204   C     0.68089   0.68406   0.86922   0.00000  Uiso   1.00
C205   C     0.85331   0.64256   0.73684   0.00000  Uiso   1.00
C206   C     0.86889   0.55199   0.69870   0.00000  Uiso   1.00
C207   C     0.87290   0.56777   0.63073   0.00000  Uiso   1.00
H208   H     0.81708   0.91277   0.73675   0.00000  Uiso   1.00
H209   H     0.90486   0.00593   0.80264   0.00000  Uiso   1.00
H210   H     0.70574   0.92043   0.78160   0.00000  Uiso   1.00
H211   H     0.83748   0.84066   0.61798   0.00000  Uiso   1.00
H212   H     0.00709   0.06394   0.88837   0.00000  Uiso   1.00
H213   H     0.58723   0.88365   0.84399   0.00000  Uiso   1.00
H214   H     0.86502   0.71542   0.49897   0.00000  Uiso   1.00
H215   H     0.85504   0.56379   0.83435   0.00000  Uiso   1.00
H216   H     0.94491   0.63780   0.90559   0.00000  Uiso   1.00
H217   H     0.74579   0.55231   0.88455   0.00000  Uiso   1.00
H218   H     0.87753   0.47253   0.72094   0.00000  Uiso   1.00
H219   H     0.03959   0.76516   0.97194   0.00000  Uiso   1.00
H220   H     0.61973   0.58486   0.92755   0.00000  Uiso   1.00
H221   H     0.89753   0.41663   0.58254   0.00000  Uiso   1.00
O222   O     0.08176   0.96954   0.97527   0.00000  Uiso   1.00
O223   O     0.53092   0.73300   0.91703   0.00000  Uiso   1.00
O224   O     0.89538   0.51229   0.46439   0.00000  Uiso   1.00
N225   N     0.00241   0.98346   0.89825   0.00000  Uiso   1.00
N226   N     0.60987   0.81490   0.85676   0.00000  Uiso   1.00
N227   N     0.86957   0.65762   0.53420   0.00000  Uiso   1.00
N228   N     0.01990   0.82269   0.94321   0.00000  Uiso   1.00
N229   N     0.62736   0.65413   0.90173   0.00000  Uiso   1.00
N230   N     0.88706   0.49684   0.57917   0.00000  Uiso   1.00
C231   C     0.67422   0.66718   0.25911   0.00000  Uiso   1.00
C232   C     0.62126   0.66496   0.30844   0.00000  Uiso   1.00
C233   C     0.58648   0.57353   0.32487   0.00000  Uiso   1.00
C234   C     0.54007   0.58844   0.37110   0.00000  Uiso   1.00
C235   C     0.45956   0.56936   0.44335   0.00000  Uiso   1.00
C236   C     0.72944   0.71141   0.29701   0.00000  Uiso   1.00
C237   C     0.78563   0.65903   0.30383   0.00000  Uiso   1.00
C238   C     0.83029   0.71306   0.34044   0.00000  Uiso   1.00
C239   C     0.91776   0.76612   0.39492   0.00000  Uiso   1.00
C240   C     0.65786   0.75475   0.20812   0.00000  Uiso   1.00
C241   C     0.65387   0.73883   0.14019   0.00000  Uiso   1.00
C242   C     0.63829   0.82935   0.10196   0.00000  Uiso   1.00
C243   C     0.61461   0.94970   0.01841   0.00000  Uiso   1.00
C244   C     0.65365   0.85625   0.31199   0.00000  Uiso   1.00
C245   C     0.61009   0.76766   0.33716   0.00000  Uiso   1.00
C246   C     0.56372   0.78272   0.38337   0.00000  Uiso   1.00
C247   C     0.52888   0.69132   0.39987   0.00000  Uiso   1.00
C248   C     0.71828   0.81410   0.32573   0.00000  Uiso   1.00
C249   C     0.76287   0.86822   0.36234   0.00000  Uiso   1.00
C250   C     0.81911   0.81594   0.36922   0.00000  Uiso   1.00
C251   C     0.64669   0.85744   0.23684   0.00000  Uiso   1.00
C252   C     0.63112   0.94801   0.19870   0.00000  Uiso   1.00
C253   C     0.62710   0.93223   0.13073   0.00000  Uiso   1.00
H254   H     0.68292   0.58723   0.23675   0.00000  Uiso   1.00
H255   H     0.59514   0.49407   0.30264   0.00000  Uiso   1.00
H256   H     0.79426   0.57957   0.28160   0.00000  Uiso   1.00
H257   H     0.66252   0.65934   0.11798   0.00000  Uiso   1.00
H258   H     0.49291   0.43606   0.38837   0.00000  Uiso   1.00
H259   H     0.91277   0.61635   0.34399   0.00000  Uiso   1.00
H260   H     0.63498   0.78458   0.99897   0.00000  Uiso   1.00
H261   H     0.64496   0.93621   0.33435   0.00000  Uiso   1.00
H262   H     0.55509   0.86220   0.40559   0.00000  Uiso   1.00
H263   H     0.75421   0.94769   0.38455   0.00000  Uiso   1.00
H264   H     0.62247   0.02747   0.22094   0.00000  Uiso   1.00
H265   H     0.46041   0.73484   0.47194   0.00000  Uiso   1.00
H266   H     0.88027   0.91514   0.42755   0.00000  Uiso   1.00
H267   H     0.60247   0.08337   0.08254   0.00000  Uiso   1.00
O268   O     0.41824   0.53046   0.47527   0.00000  Uiso   1.00
O269   O     0.96908   0.76700   0.41703   0.00000  Uiso   1.00
O270   O     0.60462   0.98771   0.96439   0.00000  Uiso   1.00
N271   N     0.49759   0.51654   0.39825   0.00000  Uiso   1.00
N272   N     0.89013   0.68510   0.35676   0.00000  Uiso   1.00
N273   N     0.63043   0.84238   0.03420   0.00000  Uiso   1.00
N274   N     0.48010   0.67731   0.44321   0.00000  Uiso   1.00
N275   N     0.87264   0.84587   0.40173   0.00000  Uiso   1.00
N276   N     0.61294   0.00316   0.07917   0.00000  Uiso   1.00
C277   C     0.17422   0.83282   0.74089   0.00000  Uiso   1.00
C278   C     0.12126   0.83504   0.69156   0.00000  Uiso   1.00
C279   C     0.08648   0.92647   0.67513   0.00000  Uiso   1.00
C280   C     0.04007   0.91156   0.62890   0.00000  Uiso   1.00
C281   C     0.95956   0.93064   0.55665   0.00000  Uiso   1.00
C282   C     0.22944   0.78859   0.70299   0.00000  Uiso   1.00
C283   C     0.28563   0.84097   0.69617   0.00000  Uiso   1.00
C284   C     0.33029   0.78694   0.65956   0.00000  Uiso   1.00
C285   C     0.41776   0.73388   0.60508   0.00000  Uiso   1.00
C286   C     0.15786   0.74525   0.79188   0.00000  Uiso   1.00
C287   C     0.15387   0.76117   0.85981   0.00000  Uiso   1.00
C288   C     0.13829   0.67065   0.89804   0.00000  Uiso   1.00
C289   C     0.11461   0.55030   0.98159   0.00000  Uiso   1.00
C290   C     0.15365   0.64375   0.68801   0.00000  Uiso   1.00
C291   C     0.11009   0.73234   0.66284   0.00000  Uiso   1.00
C292   C     0.06372   0.71728   0.61663   0.00000  Uiso   1.00
C293   C     0.02888   0.80868   0.60013   0.00000  Uiso   1.00
C294   C     0.21828   0.68590   0.67427   0.00000  Uiso   1.00
C295   C     0.26287   0.63178   0.63766   0.00000  Uiso   1.00
C296   C     0.31911   0.68406   0.63078   0.00000  Uiso   1.00
C297   C     0.14669   0.64256   0.76316   0.00000  Uiso   1.00
C298   C     0.13111   0.55199   0.80130   0.00000  Uiso   1.00
C299   C     0.12710   0.56777   0.86927   0.00000  Uiso   1.00
H300   H     0.18292   0.91277   0.76325   0.00000  Uiso   1.00
H301   H     0.09514   0.00593   0.69736   0.00000  Uiso   1.00
H302   H     0.29426   0.92043   0.71840   0.00000  Uiso   1.00
H303   H     0.16252   0.84066   0.88202   0.00000  Uiso   1.00
H304   H     0.99291   0.06394   0.61163   0.00000  Uiso   1.00
H305   H     0.41277   0.88365   0.65601   0.00000  Uiso   1.00
H306   H     0.13498   0.71542   0.00103   0.00000  Uiso   1.00
H307   H     0.14496   0.56379   0.66565   0.00000  Uiso   1.00
H308   H     0.05509   0.63780   0.59441   0.00000  Uiso   1.00
H309   H     0.25421   0.55231   0.61545   0.00000  Uiso   1.00
H310   H     0.12247   0.47253   0.77906   0.00000  Uiso   1.00
H311   H     0.96041   0.76516   0.52806   0.00000  Uiso   1.00
H312   H     0.38027   0.58486   0.57245   0.00000  Uiso   1.00
H313   H     0.10247   0.41663   0.91746   0.00000  Uiso   1.00
O314   O     0.91824   0.96954   0.52473   0.00000  Uiso   1.00
O315   O     0.46908   0.73300   0.58297   0.00000  Uiso   1.00
O316   O     0.10462   0.51229   0.03561   0.00000  Uiso   1.00
N317   N     0.99759   0.98346   0.60175   0.00000  Uiso   1.00
N318   N     0.39013   0.81490   0.64324   0.00000  Uiso   1.00
N319   N     0.13043   0.65762   0.96580   0.00000  Uiso   1.00
N320   N     0.98010   0.82269   0.55679   0.00000  Uiso   1.00
N321   N     0.37264   0.65413   0.59827   0.00000  Uiso   1.00
N322   N     0.11294   0.49684   0.92083   0.00000  Uiso   1.00
C323   C     0.32578   0.66718   0.24089   0.00000  Uiso   1.00
C324   C     0.37874   0.66496   0.19156   0.00000  Uiso   1.00
C325   C     0.41352   0.57353   0.17513   0.00000  Uiso   1.00
C326   C     0.45993   0.58844   0.12890   0.00000  Uiso   1.00
C327   C     0.54044   0.56936   0.05665   0.00000  Uiso   1.00
C328   C     0.27056   0.71141   0.20299   0.00000  Uiso   1.00
C329   C     0.21437   0.65903   0.19617   0.00000  Uiso   1.00
C330   C     0.16971   0.71306   0.15956   0.00000  Uiso   1.00
C331   C     0.08224   0.76612   0.10508   0.00000  Uiso   1.00
C332   C     0.34214   0.75475   0.29188   0.00000  Uiso   1.00
C333   C     0.34613   0.73883   0.35981   0.00000  Uiso   1.00
C334   C     0.36171   0.82935   0.39804   0.00000  Uiso   1.00
C335   C     0.38539   0.94970   0.48159   0.00000  Uiso   1.00
C336   C     0.34635   0.85625   0.18801   0.00000  Uiso   1.00
C337   C     0.38991   0.76766   0.16284   0.00000  Uiso   1.00
C338   C     0.43628   0.78272   0.11663   0.00000  Uiso   1.00
C339   C     0.47112   0.69132   0.10013   0.00000  Uiso   1.00
C340   C     0.28172   0.81410   0.17427   0.00000  Uiso   1.00
C341   C     0.23713   0.86822   0.13766   0.00000  Uiso   1.00
C342   C     0.18089   0.81594   0.13078   0.00000  Uiso   1.00
C343   C     0.35331   0.85744   0.26316   0.00000  Uiso   1.00
C344   C     0.36889   0.94801   0.30130   0.00000  Uiso   1.00
C345   C     0.37290   0.93223   0.36927   0.00000  Uiso   1.00
H346   H     0.31708   0.58723   0.26325   0.00000  Uiso   1.00
H347   H     0.40486   0.49407   0.19736   0.00000  Uiso   1.00
H348   H     0.20574   0.57957   0.21840   0.00000  Uiso   1.00
H349   H     0.33748   0.65934   0.38202   0.00000  Uiso   1.00
H350   H     0.50709   0.43606   0.11163   0.00000  Uiso   1.00
H351   H     0.08723   0.61635   0.15601   0.00000  Uiso   1.00
H352   H     0.36502   0.78458   0.50103   0.00000  Uiso   1.00
H353   H     0.35504   0.93621   0.16565   0.00000  Uiso   1.00
H354   H     0.44491   0.86220   0.09441   0.00000  Uiso   1.00
H355   H     0.24579   0.94769   0.11545   0.00000  Uiso   1.00
H356   H     0.37753   0.02747   0.27906   0.00000  Uiso   1.00
H357   H     0.53959   0.73484   0.02806   0.00000  Uiso   1.00
H358   H     0.11973   0.91514   0.07245   0.00000  Uiso   1.00
H359   H     0.39753   0.08337   0.41746   0.00000  Uiso   1.00
O360   O     0.58176   0.53046   0.02473   0.00000  Uiso   1.00
O361   O     0.03092   0.76700   0.08297   0.00000  Uiso   1.00
O362   O     0.39538   0.98771   0.53561   0.00000  Uiso   1.00
N363   N     0.50241   0.51654   0.10175   0.00000  Uiso   1.00
N364   N     0.10987   0.68510   0.14324   0.00000  Uiso   1.00
N365   N     0.36957   0.84238   0.46580   0.00000  Uiso   1.00
N366   N     0.51990   0.67731   0.05679   0.00000  Uiso   1.00
N367   N     0.12736   0.84587   0.09827   0.00000  Uiso   1.00
N368   N     0.38706   0.00316   0.42083   0.00000  Uiso   1.00
