data_job_03933
_audit_creation_date              2018-12-19
_audit_creation_method            'Materials Studio'
_symmetry_space_group_name_H-M    'P1'
_symmetry_Int_Tables_number       1
_symmetry_cell_setting            triclinic
loop_
_symmetry_equiv_pos_as_xyz
  x,y,z
_cell_length_a                    19.8728
_cell_length_b                    21.5420
_cell_length_c                    12.3309
_cell_angle_alpha                 90.0000
_cell_angle_beta                  92.4754
_cell_angle_gamma                 90.0000
loop_
_atom_site_label
_atom_site_type_symbol
_atom_site_fract_x
_atom_site_fract_y
_atom_site_fract_z
_atom_site_U_iso_or_equiv
_atom_site_adp_type
_atom_site_occupancy
C1     C     0.56319   0.16837   0.12538   0.00000  Uiso   1.00
C2     C     0.54874   0.23675   0.10246   0.00000  Uiso   1.00
C3     C     0.48689   0.26590   0.11063   0.00000  Uiso   1.00
C4     C     0.48403   0.32878   0.08617   0.00000  Uiso   1.00
C5     C     0.45292   0.43001   0.05531   0.00000  Uiso   1.00
C6     C     0.59219   0.14230   0.02233   0.00000  Uiso   1.00
C7     C     0.56689   0.09204   0.96315   0.00000  Uiso   1.00
C8     C     0.60063   0.07541   0.87124   0.00000  Uiso   1.00
C9     C     0.63701   0.02997   0.71604   0.00000  Uiso   1.00
C10    C     0.62053   0.16705   0.21161   0.00000  Uiso   1.00
C11    C     0.61906   0.13758   0.31156   0.00000  Uiso   1.00
C12    C     0.67666   0.14177   0.37901   0.00000  Uiso   1.00
C13    C     0.75704   0.13477   0.51768   0.00000  Uiso   1.00
C14    C     0.66810   0.22820   0.06740   0.00000  Uiso   1.00
C15    C     0.60572   0.26924   0.07096   0.00000  Uiso   1.00
C16    C     0.60296   0.33210   0.04648   0.00000  Uiso   1.00
C17    C     0.54112   0.36134   0.05462   0.00000  Uiso   1.00
C18    C     0.64918   0.17479   0.99084   0.00000  Uiso   1.00
C19    C     0.68296   0.15823   0.89901   0.00000  Uiso   1.00
C20    C     0.65771   0.10796   0.83970   0.00000  Uiso   1.00
C21    C     0.67752   0.19955   0.18012   0.00000  Uiso   1.00
C22    C     0.73513   0.20378   0.24742   0.00000  Uiso   1.00
C23    C     0.73375   0.17433   0.34746   0.00000  Uiso   1.00
H24    H     0.51883   0.14306   0.14989   0.00000  Uiso   1.00
H25    H     0.44280   0.24074   0.13499   0.00000  Uiso   1.00
H26    H     0.52280   0.06689   0.98755   0.00000  Uiso   1.00
H27    H     0.57496   0.11244   0.33591   0.00000  Uiso   1.00
H28    H     0.38364   0.36335   0.10455   0.00000  Uiso   1.00
H29    H     0.55232   0.99678   0.79367   0.00000  Uiso   1.00
H30    H     0.66232   0.09281   0.52825   0.00000  Uiso   1.00
H31    H     0.71247   0.25350   0.04288   0.00000  Uiso   1.00
H32    H     0.64707   0.35723   0.02212   0.00000  Uiso   1.00
H33    H     0.72706   0.18339   0.87466   0.00000  Uiso   1.00
H34    H     0.77922   0.22893   0.22302   0.00000  Uiso   1.00
H35    H     0.54942   0.45790   0.01293   0.00000  Uiso   1.00
H36    H     0.71811   0.09133   0.70205   0.00000  Uiso   1.00
H37    H     0.82810   0.18737   0.43663   0.00000  Uiso   1.00
O38    O     0.42001   0.47687   0.04697   0.00000  Uiso   1.00
O39    O     0.64132   0.99594   0.63912   0.00000  Uiso   1.00
O40    O     0.78563   0.12194   0.60288   0.00000  Uiso   1.00
N41    N     0.43163   0.37137   0.08586   0.00000  Uiso   1.00
N42    N     0.58934   0.02866   0.79519   0.00000  Uiso   1.00
N43    N     0.69218   0.11842   0.48196   0.00000  Uiso   1.00
N44    N     0.52084   0.42225   0.03656   0.00000  Uiso   1.00
N45    N     0.67855   0.07953   0.74589   0.00000  Uiso   1.00
N46    N     0.78139   0.16930   0.43266   0.00000  Uiso   1.00
C47    C     0.06319   0.66837   0.12538   0.00000  Uiso   1.00
C48    C     0.04874   0.73675   0.10246   0.00000  Uiso   1.00
C49    C     0.98689   0.76590   0.11063   0.00000  Uiso   1.00
C50    C     0.98403   0.82878   0.08617   0.00000  Uiso   1.00
C51    C     0.95292   0.93001   0.05531   0.00000  Uiso   1.00
C52    C     0.09219   0.64230   0.02233   0.00000  Uiso   1.00
C53    C     0.06689   0.59204   0.96315   0.00000  Uiso   1.00
C54    C     0.10063   0.57541   0.87124   0.00000  Uiso   1.00
C55    C     0.13701   0.52997   0.71604   0.00000  Uiso   1.00
C56    C     0.12053   0.66705   0.21161   0.00000  Uiso   1.00
C57    C     0.11906   0.63758   0.31156   0.00000  Uiso   1.00
C58    C     0.17666   0.64177   0.37901   0.00000  Uiso   1.00
C59    C     0.25704   0.63477   0.51768   0.00000  Uiso   1.00
C60    C     0.16810   0.72820   0.06740   0.00000  Uiso   1.00
C61    C     0.10572   0.76924   0.07096   0.00000  Uiso   1.00
C62    C     0.10296   0.83210   0.04648   0.00000  Uiso   1.00
C63    C     0.04112   0.86134   0.05462   0.00000  Uiso   1.00
C64    C     0.14918   0.67479   0.99084   0.00000  Uiso   1.00
C65    C     0.18296   0.65823   0.89901   0.00000  Uiso   1.00
C66    C     0.15771   0.60796   0.83970   0.00000  Uiso   1.00
C67    C     0.17752   0.69955   0.18012   0.00000  Uiso   1.00
C68    C     0.23513   0.70378   0.24742   0.00000  Uiso   1.00
C69    C     0.23375   0.67433   0.34746   0.00000  Uiso   1.00
H70    H     0.01883   0.64306   0.14989   0.00000  Uiso   1.00
H71    H     0.94280   0.74074   0.13499   0.00000  Uiso   1.00
H72    H     0.02280   0.56689   0.98755   0.00000  Uiso   1.00
H73    H     0.07496   0.61244   0.33591   0.00000  Uiso   1.00
H74    H     0.88364   0.86335   0.10455   0.00000  Uiso   1.00
H75    H     0.05232   0.49678   0.79367   0.00000  Uiso   1.00
H76    H     0.16232   0.59281   0.52825   0.00000  Uiso   1.00
H77    H     0.21247   0.75350   0.04288   0.00000  Uiso   1.00
H78    H     0.14707   0.85723   0.02212   0.00000  Uiso   1.00
H79    H     0.22706   0.68339   0.87466   0.00000  Uiso   1.00
H80    H     0.27922   0.72893   0.22302   0.00000  Uiso   1.00
H81    H     0.04942   0.95790   0.01293   0.00000  Uiso   1.00
H82    H     0.21811   0.59133   0.70205   0.00000  Uiso   1.00
H83    H     0.32810   0.68737   0.43663   0.00000  Uiso   1.00
O84    O     0.92001   0.97687   0.04697   0.00000  Uiso   1.00
O85    O     0.14132   0.49594   0.63912   0.00000  Uiso   1.00
O86    O     0.28563   0.62194   0.60288   0.00000  Uiso   1.00
N87    N     0.93163   0.87137   0.08586   0.00000  Uiso   1.00
N88    N     0.08934   0.52866   0.79519   0.00000  Uiso   1.00
N89    N     0.19218   0.61842   0.48196   0.00000  Uiso   1.00
N90    N     0.02084   0.92225   0.03656   0.00000  Uiso   1.00
N91    N     0.17855   0.57953   0.74589   0.00000  Uiso   1.00
N92    N     0.28139   0.66930   0.43266   0.00000  Uiso   1.00
C93    C     0.43681   0.16837   0.37462   0.00000  Uiso   1.00
C94    C     0.45126   0.23675   0.39754   0.00000  Uiso   1.00
C95    C     0.51311   0.26590   0.38937   0.00000  Uiso   1.00
C96    C     0.51597   0.32878   0.41383   0.00000  Uiso   1.00
C97    C     0.54708   0.43001   0.44469   0.00000  Uiso   1.00
C98    C     0.40781   0.14230   0.47767   0.00000  Uiso   1.00
C99    C     0.43311   0.09204   0.53685   0.00000  Uiso   1.00
C100   C     0.39937   0.07541   0.62876   0.00000  Uiso   1.00
C101   C     0.36299   0.02997   0.78396   0.00000  Uiso   1.00
C102   C     0.37947   0.16705   0.28839   0.00000  Uiso   1.00
C103   C     0.38094   0.13758   0.18844   0.00000  Uiso   1.00
C104   C     0.32334   0.14177   0.12099   0.00000  Uiso   1.00
C105   C     0.24296   0.13477   0.98232   0.00000  Uiso   1.00
C106   C     0.33190   0.22820   0.43260   0.00000  Uiso   1.00
C107   C     0.39428   0.26924   0.42904   0.00000  Uiso   1.00
C108   C     0.39704   0.33210   0.45352   0.00000  Uiso   1.00
C109   C     0.45888   0.36134   0.44538   0.00000  Uiso   1.00
C110   C     0.35082   0.17479   0.50916   0.00000  Uiso   1.00
C111   C     0.31704   0.15823   0.60099   0.00000  Uiso   1.00
C112   C     0.34229   0.10796   0.66030   0.00000  Uiso   1.00
C113   C     0.32248   0.19955   0.31988   0.00000  Uiso   1.00
C114   C     0.26487   0.20378   0.25258   0.00000  Uiso   1.00
C115   C     0.26625   0.17433   0.15254   0.00000  Uiso   1.00
H116   H     0.48117   0.14306   0.35011   0.00000  Uiso   1.00
H117   H     0.55720   0.24074   0.36501   0.00000  Uiso   1.00
H118   H     0.47720   0.06689   0.51245   0.00000  Uiso   1.00
H119   H     0.42504   0.11244   0.16409   0.00000  Uiso   1.00
H120   H     0.61636   0.36335   0.39545   0.00000  Uiso   1.00
H121   H     0.44768   0.99678   0.70633   0.00000  Uiso   1.00
H122   H     0.33768   0.09281   0.97175   0.00000  Uiso   1.00
H123   H     0.28753   0.25350   0.45712   0.00000  Uiso   1.00
H124   H     0.35293   0.35723   0.47788   0.00000  Uiso   1.00
H125   H     0.27294   0.18339   0.62534   0.00000  Uiso   1.00
H126   H     0.22078   0.22893   0.27698   0.00000  Uiso   1.00
H127   H     0.45058   0.45790   0.48707   0.00000  Uiso   1.00
H128   H     0.28189   0.09133   0.79795   0.00000  Uiso   1.00
H129   H     0.17190   0.18737   0.06337   0.00000  Uiso   1.00
O130   O     0.57999   0.47687   0.45303   0.00000  Uiso   1.00
O131   O     0.35868   0.99594   0.86088   0.00000  Uiso   1.00
O132   O     0.21437   0.12194   0.89712   0.00000  Uiso   1.00
N133   N     0.56837   0.37137   0.41414   0.00000  Uiso   1.00
N134   N     0.41066   0.02866   0.70481   0.00000  Uiso   1.00
N135   N     0.30782   0.11842   0.01804   0.00000  Uiso   1.00
N136   N     0.47916   0.42225   0.46344   0.00000  Uiso   1.00
N137   N     0.32145   0.07953   0.75411   0.00000  Uiso   1.00
N138   N     0.21861   0.16930   0.06734   0.00000  Uiso   1.00
C139   C     0.93681   0.66837   0.37462   0.00000  Uiso   1.00
C140   C     0.95126   0.73675   0.39754   0.00000  Uiso   1.00
C141   C     0.01311   0.76590   0.38937   0.00000  Uiso   1.00
C142   C     0.01597   0.82878   0.41383   0.00000  Uiso   1.00
C143   C     0.04708   0.93001   0.44469   0.00000  Uiso   1.00
C144   C     0.90781   0.64230   0.47767   0.00000  Uiso   1.00
C145   C     0.93311   0.59204   0.53685   0.00000  Uiso   1.00
C146   C     0.89937   0.57541   0.62876   0.00000  Uiso   1.00
C147   C     0.86299   0.52997   0.78396   0.00000  Uiso   1.00
C148   C     0.87947   0.66705   0.28839   0.00000  Uiso   1.00
C149   C     0.88094   0.63758   0.18844   0.00000  Uiso   1.00
C150   C     0.82334   0.64177   0.12099   0.00000  Uiso   1.00
C151   C     0.74296   0.63477   0.98232   0.00000  Uiso   1.00
C152   C     0.83190   0.72820   0.43260   0.00000  Uiso   1.00
C153   C     0.89428   0.76924   0.42904   0.00000  Uiso   1.00
C154   C     0.89704   0.83210   0.45352   0.00000  Uiso   1.00
C155   C     0.95888   0.86134   0.44538   0.00000  Uiso   1.00
C156   C     0.85082   0.67479   0.50916   0.00000  Uiso   1.00
C157   C     0.81704   0.65823   0.60099   0.00000  Uiso   1.00
C158   C     0.84229   0.60796   0.66030   0.00000  Uiso   1.00
C159   C     0.82248   0.69955   0.31988   0.00000  Uiso   1.00
C160   C     0.76487   0.70378   0.25258   0.00000  Uiso   1.00
C161   C     0.76625   0.67433   0.15254   0.00000  Uiso   1.00
H162   H     0.98117   0.64306   0.35011   0.00000  Uiso   1.00
H163   H     0.05720   0.74074   0.36501   0.00000  Uiso   1.00
H164   H     0.97720   0.56689   0.51245   0.00000  Uiso   1.00
H165   H     0.92504   0.61244   0.16409   0.00000  Uiso   1.00
H166   H     0.11636   0.86335   0.39545   0.00000  Uiso   1.00
H167   H     0.94768   0.49678   0.70633   0.00000  Uiso   1.00
H168   H     0.83768   0.59281   0.97175   0.00000  Uiso   1.00
H169   H     0.78753   0.75350   0.45712   0.00000  Uiso   1.00
H170   H     0.85293   0.85723   0.47788   0.00000  Uiso   1.00
H171   H     0.77294   0.68339   0.62534   0.00000  Uiso   1.00
H172   H     0.72078   0.72893   0.27698   0.00000  Uiso   1.00
H173   H     0.95058   0.95790   0.48707   0.00000  Uiso   1.00
H174   H     0.78189   0.59133   0.79795   0.00000  Uiso   1.00
H175   H     0.67190   0.68737   0.06337   0.00000  Uiso   1.00
O176   O     0.07999   0.97687   0.45303   0.00000  Uiso   1.00
O177   O     0.85868   0.49594   0.86088   0.00000  Uiso   1.00
O178   O     0.71437   0.62194   0.89712   0.00000  Uiso   1.00
N179   N     0.06837   0.87137   0.41414   0.00000  Uiso   1.00
N180   N     0.91066   0.52866   0.70481   0.00000  Uiso   1.00
N181   N     0.80782   0.61842   0.01804   0.00000  Uiso   1.00
N182   N     0.97916   0.92225   0.46344   0.00000  Uiso   1.00
N183   N     0.82145   0.57953   0.75411   0.00000  Uiso   1.00
N184   N     0.71861   0.66930   0.06734   0.00000  Uiso   1.00
C185   C     0.43681   0.83163   0.87462   0.00000  Uiso   1.00
C186   C     0.45126   0.76325   0.89754   0.00000  Uiso   1.00
C187   C     0.51311   0.73410   0.88937   0.00000  Uiso   1.00
C188   C     0.51597   0.67122   0.91383   0.00000  Uiso   1.00
C189   C     0.54708   0.56999   0.94469   0.00000  Uiso   1.00
C190   C     0.40780   0.85770   0.97767   0.00000  Uiso   1.00
C191   C     0.43311   0.90796   0.03685   0.00000  Uiso   1.00
C192   C     0.39937   0.92459   0.12876   0.00000  Uiso   1.00
C193   C     0.36299   0.97003   0.28396   0.00000  Uiso   1.00
C194   C     0.37947   0.83295   0.78839   0.00000  Uiso   1.00
C195   C     0.38094   0.86242   0.68844   0.00000  Uiso   1.00
C196   C     0.32334   0.85823   0.62099   0.00000  Uiso   1.00
C197   C     0.24296   0.86523   0.48232   0.00000  Uiso   1.00
C198   C     0.33190   0.77180   0.93260   0.00000  Uiso   1.00
C199   C     0.39428   0.73076   0.92904   0.00000  Uiso   1.00
C200   C     0.39704   0.66790   0.95352   0.00000  Uiso   1.00
C201   C     0.45888   0.63866   0.94538   0.00000  Uiso   1.00
C202   C     0.35082   0.82521   0.00916   0.00000  Uiso   1.00
C203   C     0.31704   0.84177   0.10099   0.00000  Uiso   1.00
C204   C     0.34229   0.89204   0.16030   0.00000  Uiso   1.00
C205   C     0.32248   0.80045   0.81988   0.00000  Uiso   1.00
C206   C     0.26487   0.79622   0.75258   0.00000  Uiso   1.00
C207   C     0.26625   0.82567   0.65254   0.00000  Uiso   1.00
H208   H     0.48117   0.85694   0.85011   0.00000  Uiso   1.00
H209   H     0.55720   0.75926   0.86501   0.00000  Uiso   1.00
H210   H     0.47720   0.93311   0.01245   0.00000  Uiso   1.00
H211   H     0.42504   0.88756   0.66409   0.00000  Uiso   1.00
H212   H     0.61636   0.63665   0.89545   0.00000  Uiso   1.00
H213   H     0.44768   0.00322   0.20633   0.00000  Uiso   1.00
H214   H     0.33768   0.90719   0.47175   0.00000  Uiso   1.00
H215   H     0.28753   0.74650   0.95712   0.00000  Uiso   1.00
H216   H     0.35293   0.64277   0.97788   0.00000  Uiso   1.00
H217   H     0.27294   0.81661   0.12534   0.00000  Uiso   1.00
H218   H     0.22078   0.77107   0.77698   0.00000  Uiso   1.00
H219   H     0.45058   0.54210   0.98707   0.00000  Uiso   1.00
H220   H     0.28189   0.90867   0.29795   0.00000  Uiso   1.00
H221   H     0.17190   0.81263   0.56337   0.00000  Uiso   1.00
O222   O     0.57999   0.52313   0.95303   0.00000  Uiso   1.00
O223   O     0.35868   0.00406   0.36088   0.00000  Uiso   1.00
O224   O     0.21437   0.87806   0.39712   0.00000  Uiso   1.00
N225   N     0.56837   0.62863   0.91414   0.00000  Uiso   1.00
N226   N     0.41066   0.97134   0.20481   0.00000  Uiso   1.00
N227   N     0.30782   0.88158   0.51804   0.00000  Uiso   1.00
N228   N     0.47916   0.57775   0.96344   0.00000  Uiso   1.00
N229   N     0.32145   0.92047   0.25411   0.00000  Uiso   1.00
N230   N     0.21861   0.83070   0.56734   0.00000  Uiso   1.00
C231   C     0.93681   0.33163   0.87462   0.00000  Uiso   1.00
C232   C     0.95126   0.26325   0.89754   0.00000  Uiso   1.00
C233   C     0.01311   0.23410   0.88937   0.00000  Uiso   1.00
C234   C     0.01597   0.17122   0.91383   0.00000  Uiso   1.00
C235   C     0.04708   0.06999   0.94469   0.00000  Uiso   1.00
C236   C     0.90781   0.35770   0.97767   0.00000  Uiso   1.00
C237   C     0.93311   0.40796   0.03685   0.00000  Uiso   1.00
C238   C     0.89937   0.42459   0.12876   0.00000  Uiso   1.00
C239   C     0.86299   0.47003   0.28396   0.00000  Uiso   1.00
C240   C     0.87947   0.33295   0.78839   0.00000  Uiso   1.00
C241   C     0.88094   0.36242   0.68844   0.00000  Uiso   1.00
C242   C     0.82334   0.35823   0.62099   0.00000  Uiso   1.00
C243   C     0.74296   0.36523   0.48232   0.00000  Uiso   1.00
C244   C     0.83190   0.27180   0.93260   0.00000  Uiso   1.00
C245   C     0.89428   0.23076   0.92904   0.00000  Uiso   1.00
C246   C     0.89704   0.16790   0.95352   0.00000  Uiso   1.00
C247   C     0.95888   0.13866   0.94538   0.00000  Uiso   1.00
C248   C     0.85082   0.32521   0.00916   0.00000  Uiso   1.00
C249   C     0.81704   0.34177   0.10099   0.00000  Uiso   1.00
C250   C     0.84229   0.39204   0.16030   0.00000  Uiso   1.00
C251   C     0.82248   0.30045   0.81988   0.00000  Uiso   1.00
C252   C     0.76487   0.29622   0.75258   0.00000  Uiso   1.00
C253   C     0.76625   0.32567   0.65254   0.00000  Uiso   1.00
H254   H     0.98117   0.35694   0.85011   0.00000  Uiso   1.00
H255   H     0.05720   0.25926   0.86501   0.00000  Uiso   1.00
H256   H     0.97720   0.43311   0.01245   0.00000  Uiso   1.00
H257   H     0.92504   0.38756   0.66409   0.00000  Uiso   1.00
H258   H     0.11636   0.13665   0.89545   0.00000  Uiso   1.00
H259   H     0.94768   0.50322   0.20633   0.00000  Uiso   1.00
H260   H     0.83768   0.40719   0.47175   0.00000  Uiso   1.00
H261   H     0.78753   0.24650   0.95712   0.00000  Uiso   1.00
H262   H     0.85293   0.14277   0.97788   0.00000  Uiso   1.00
H263   H     0.77294   0.31661   0.12534   0.00000  Uiso   1.00
H264   H     0.72078   0.27107   0.77698   0.00000  Uiso   1.00
H265   H     0.95058   0.04210   0.98707   0.00000  Uiso   1.00
H266   H     0.78189   0.40867   0.29795   0.00000  Uiso   1.00
H267   H     0.67190   0.31263   0.56337   0.00000  Uiso   1.00
O268   O     0.07999   0.02313   0.95303   0.00000  Uiso   1.00
O269   O     0.85868   0.50406   0.36088   0.00000  Uiso   1.00
O270   O     0.71437   0.37806   0.39712   0.00000  Uiso   1.00
N271   N     0.06837   0.12863   0.91414   0.00000  Uiso   1.00
N272   N     0.91066   0.47134   0.20481   0.00000  Uiso   1.00
N273   N     0.80782   0.38158   0.51804   0.00000  Uiso   1.00
N274   N     0.97916   0.07775   0.96344   0.00000  Uiso   1.00
N275   N     0.82145   0.42047   0.25411   0.00000  Uiso   1.00
N276   N     0.71861   0.33070   0.56734   0.00000  Uiso   1.00
C277   C     0.56319   0.83163   0.62538   0.00000  Uiso   1.00
C278   C     0.54874   0.76325   0.60246   0.00000  Uiso   1.00
C279   C     0.48689   0.73410   0.61063   0.00000  Uiso   1.00
C280   C     0.48403   0.67122   0.58617   0.00000  Uiso   1.00
C281   C     0.45292   0.56999   0.55531   0.00000  Uiso   1.00
C282   C     0.59219   0.85770   0.52233   0.00000  Uiso   1.00
C283   C     0.56689   0.90796   0.46315   0.00000  Uiso   1.00
C284   C     0.60063   0.92459   0.37124   0.00000  Uiso   1.00
C285   C     0.63701   0.97003   0.21604   0.00000  Uiso   1.00
C286   C     0.62053   0.83295   0.71161   0.00000  Uiso   1.00
C287   C     0.61906   0.86242   0.81156   0.00000  Uiso   1.00
C288   C     0.67666   0.85823   0.87901   0.00000  Uiso   1.00
C289   C     0.75704   0.86523   0.01768   0.00000  Uiso   1.00
C290   C     0.66810   0.77180   0.56740   0.00000  Uiso   1.00
C291   C     0.60572   0.73076   0.57096   0.00000  Uiso   1.00
C292   C     0.60296   0.66790   0.54648   0.00000  Uiso   1.00
C293   C     0.54112   0.63866   0.55462   0.00000  Uiso   1.00
C294   C     0.64918   0.82521   0.49084   0.00000  Uiso   1.00
C295   C     0.68296   0.84177   0.39901   0.00000  Uiso   1.00
C296   C     0.65771   0.89204   0.33970   0.00000  Uiso   1.00
C297   C     0.67752   0.80045   0.68012   0.00000  Uiso   1.00
C298   C     0.73513   0.79622   0.74742   0.00000  Uiso   1.00
C299   C     0.73375   0.82567   0.84746   0.00000  Uiso   1.00
H300   H     0.51883   0.85694   0.64989   0.00000  Uiso   1.00
H301   H     0.44280   0.75926   0.63499   0.00000  Uiso   1.00
H302   H     0.52280   0.93311   0.48755   0.00000  Uiso   1.00
H303   H     0.57496   0.88756   0.83591   0.00000  Uiso   1.00
H304   H     0.38364   0.63665   0.60455   0.00000  Uiso   1.00
H305   H     0.55232   0.00322   0.29367   0.00000  Uiso   1.00
H306   H     0.66232   0.90719   0.02825   0.00000  Uiso   1.00
H307   H     0.71247   0.74650   0.54288   0.00000  Uiso   1.00
H308   H     0.64707   0.64277   0.52212   0.00000  Uiso   1.00
H309   H     0.72706   0.81661   0.37466   0.00000  Uiso   1.00
H310   H     0.77922   0.77107   0.72302   0.00000  Uiso   1.00
H311   H     0.54942   0.54210   0.51293   0.00000  Uiso   1.00
H312   H     0.71811   0.90867   0.20205   0.00000  Uiso   1.00
H313   H     0.82810   0.81263   0.93663   0.00000  Uiso   1.00
O314   O     0.42001   0.52313   0.54697   0.00000  Uiso   1.00
O315   O     0.64132   0.00406   0.13912   0.00000  Uiso   1.00
O316   O     0.78563   0.87806   0.10288   0.00000  Uiso   1.00
N317   N     0.43163   0.62863   0.58586   0.00000  Uiso   1.00
N318   N     0.58934   0.97134   0.29519   0.00000  Uiso   1.00
N319   N     0.69218   0.88158   0.98196   0.00000  Uiso   1.00
N320   N     0.52084   0.57775   0.53656   0.00000  Uiso   1.00
N321   N     0.67855   0.92047   0.24589   0.00000  Uiso   1.00
N322   N     0.78139   0.83070   0.93266   0.00000  Uiso   1.00
C323   C     0.06319   0.33163   0.62538   0.00000  Uiso   1.00
C324   C     0.04874   0.26325   0.60246   0.00000  Uiso   1.00
C325   C     0.98689   0.23410   0.61063   0.00000  Uiso   1.00
C326   C     0.98403   0.17122   0.58617   0.00000  Uiso   1.00
C327   C     0.95292   0.06999   0.55531   0.00000  Uiso   1.00
C328   C     0.09219   0.35770   0.52233   0.00000  Uiso   1.00
C329   C     0.06689   0.40796   0.46315   0.00000  Uiso   1.00
C330   C     0.10063   0.42459   0.37124   0.00000  Uiso   1.00
C331   C     0.13701   0.47003   0.21604   0.00000  Uiso   1.00
C332   C     0.12053   0.33295   0.71161   0.00000  Uiso   1.00
C333   C     0.11906   0.36242   0.81156   0.00000  Uiso   1.00
C334   C     0.17666   0.35823   0.87901   0.00000  Uiso   1.00
C335   C     0.25704   0.36523   0.01768   0.00000  Uiso   1.00
C336   C     0.16810   0.27180   0.56740   0.00000  Uiso   1.00
C337   C     0.10572   0.23076   0.57096   0.00000  Uiso   1.00
C338   C     0.10296   0.16790   0.54648   0.00000  Uiso   1.00
C339   C     0.04112   0.13866   0.55462   0.00000  Uiso   1.00
C340   C     0.14918   0.32521   0.49084   0.00000  Uiso   1.00
C341   C     0.18296   0.34177   0.39901   0.00000  Uiso   1.00
C342   C     0.15771   0.39204   0.33970   0.00000  Uiso   1.00
C343   C     0.17752   0.30045   0.68012   0.00000  Uiso   1.00
C344   C     0.23513   0.29622   0.74742   0.00000  Uiso   1.00
C345   C     0.23375   0.32567   0.84746   0.00000  Uiso   1.00
H346   H     0.01883   0.35694   0.64989   0.00000  Uiso   1.00
H347   H     0.94280   0.25926   0.63499   0.00000  Uiso   1.00
H348   H     0.02280   0.43311   0.48755   0.00000  Uiso   1.00
H349   H     0.07496   0.38756   0.83591   0.00000  Uiso   1.00
H350   H     0.88364   0.13665   0.60455   0.00000  Uiso   1.00
H351   H     0.05232   0.50322   0.29367   0.00000  Uiso   1.00
H352   H     0.16232   0.40719   0.02825   0.00000  Uiso   1.00
H353   H     0.21247   0.24650   0.54288   0.00000  Uiso   1.00
H354   H     0.14707   0.14277   0.52212   0.00000  Uiso   1.00
H355   H     0.22706   0.31661   0.37466   0.00000  Uiso   1.00
H356   H     0.27922   0.27107   0.72302   0.00000  Uiso   1.00
H357   H     0.04942   0.04210   0.51293   0.00000  Uiso   1.00
H358   H     0.21811   0.40867   0.20205   0.00000  Uiso   1.00
H359   H     0.32810   0.31263   0.93663   0.00000  Uiso   1.00
O360   O     0.92001   0.02313   0.54697   0.00000  Uiso   1.00
O361   O     0.14132   0.50406   0.13912   0.00000  Uiso   1.00
O362   O     0.28563   0.37806   0.10288   0.00000  Uiso   1.00
N363   N     0.93163   0.12863   0.58586   0.00000  Uiso   1.00
N364   N     0.08934   0.47134   0.29519   0.00000  Uiso   1.00
N365   N     0.19218   0.38158   0.98196   0.00000  Uiso   1.00
N366   N     0.02084   0.07775   0.53656   0.00000  Uiso   1.00
N367   N     0.17855   0.42047   0.24589   0.00000  Uiso   1.00
N368   N     0.28139   0.33070   0.93266   0.00000  Uiso   1.00
