data_job_01024
_audit_creation_date              2018-12-19
_audit_creation_method            'Materials Studio'
_symmetry_space_group_name_H-M    'P1'
_symmetry_Int_Tables_number       1
_symmetry_cell_setting            triclinic
loop_
_symmetry_equiv_pos_as_xyz
  x,y,z
_cell_length_a                    12.6032
_cell_length_b                    16.0215
_cell_length_c                    19.9847
_cell_angle_alpha                 90.0000
_cell_angle_beta                  136.3499
_cell_angle_gamma                 90.0000
loop_
_atom_site_label
_atom_site_type_symbol
_atom_site_fract_x
_atom_site_fract_y
_atom_site_fract_z
_atom_site_U_iso_or_equiv
_atom_site_adp_type
_atom_site_occupancy
C1     C     0.96232   0.32766   0.23669   0.00000  Uiso   1.00
C2     C     0.84081   0.29769   0.23071   0.00000  Uiso   1.00
C3     C     0.86108   0.28875   0.30846   0.00000  Uiso   1.00
C4     C     0.73584   0.26045   0.28792   0.00000  Uiso   1.00
C5     C     0.56855   0.21670   0.29308   0.00000  Uiso   1.00
C6     C     0.97658   0.25911   0.19063   0.00000  Uiso   1.00
C7     C     0.11101   0.21775   0.23468   0.00000  Uiso   1.00
C8     C     0.10006   0.15698   0.18038   0.00000  Uiso   1.00
C9     C     0.14358   0.05338   0.12329   0.00000  Uiso   1.00
C10    C     0.89246   0.40264   0.16897   0.00000  Uiso   1.00
C11    C     0.95616   0.48195   0.19479   0.00000  Uiso   1.00
C12    C     0.87440   0.54202   0.12225   0.00000  Uiso   1.00
C13    C     0.78730   0.66127   0.03153   0.00000  Uiso   1.00
C14    C     0.70387   0.29330   0.06193   0.00000  Uiso   1.00
C15    C     0.70043   0.27902   0.13579   0.00000  Uiso   1.00
C16    C     0.57513   0.25073   0.11512   0.00000  Uiso   1.00
C17    C     0.59520   0.24175   0.19283   0.00000  Uiso   1.00
C18    C     0.83621   0.24044   0.09571   0.00000  Uiso   1.00
C19    C     0.82506   0.17973   0.04133   0.00000  Uiso   1.00
C20    C     0.95943   0.13828   0.08529   0.00000  Uiso   1.00
C21    C     0.75207   0.38397   0.07405   0.00000  Uiso   1.00
C22    C     0.67021   0.44393   0.00145   0.00000  Uiso   1.00
C23    C     0.73377   0.52332   0.02716   0.00000  Uiso   1.00
H24    H     0.07162   0.34219   0.31058   0.00000  Uiso   1.00
H25    H     0.96974   0.30319   0.38191   0.00000  Uiso   1.00
H26    H     0.21963   0.23221   0.30813   0.00000  Uiso   1.00
H27    H     0.06480   0.49637   0.26825   0.00000  Uiso   1.00
H28    H     0.79490   0.25170   0.41913   0.00000  Uiso   1.00
H29    H     0.32182   0.10204   0.26355   0.00000  Uiso   1.00
H30    H     0.99533   0.65908   0.17946   0.00000  Uiso   1.00
H31    H     0.59457   0.27877   0.98803   0.00000  Uiso   1.00
H32    H     0.46651   0.23629   0.04166   0.00000  Uiso   1.00
H33    H     0.71641   0.16530   0.96788   0.00000  Uiso   1.00
H34    H     0.56158   0.42946   0.92800   0.00000  Uiso   1.00
H35    H     0.38646   0.19739   0.14297   0.00000  Uiso   1.00
H36    H     0.91339   0.04774   0.98739   0.00000  Uiso   1.00
H37    H     0.58690   0.60477   0.90330   0.00000  Uiso   1.00
O38    O     0.51506   0.19772   0.32215   0.00000  Uiso   1.00
O39    O     0.20637   0.00139   0.11803   0.00000  Uiso   1.00
O40    O     0.77802   0.73220   0.00771   0.00000  Uiso   1.00
N41    N     0.71633   0.24476   0.34677   0.00000  Uiso   1.00
N42    N     0.20898   0.10483   0.20132   0.00000  Uiso   1.00
N43    N     0.90376   0.62561   0.12270   0.00000  Uiso   1.00
N44    N     0.49656   0.21554   0.19818   0.00000  Uiso   1.00
N45    N     0.98920   0.07561   0.05272   0.00000  Uiso   1.00
N46    N     0.68398   0.59639   0.97410   0.00000  Uiso   1.00
C47    C     0.03768   0.82766   0.26331   0.00000  Uiso   1.00
C48    C     0.15919   0.79769   0.26929   0.00000  Uiso   1.00
C49    C     0.13892   0.78875   0.19154   0.00000  Uiso   1.00
C50    C     0.26416   0.76045   0.21208   0.00000  Uiso   1.00
C51    C     0.43145   0.71670   0.20692   0.00000  Uiso   1.00
C52    C     0.02342   0.75911   0.30937   0.00000  Uiso   1.00
C53    C     0.88899   0.71775   0.26532   0.00000  Uiso   1.00
C54    C     0.89994   0.65698   0.31962   0.00000  Uiso   1.00
C55    C     0.85642   0.55338   0.37671   0.00000  Uiso   1.00
C56    C     0.10754   0.90264   0.33103   0.00000  Uiso   1.00
C57    C     0.04384   0.98195   0.30521   0.00000  Uiso   1.00
C58    C     0.12560   0.04202   0.37775   0.00000  Uiso   1.00
C59    C     0.21270   0.16127   0.46847   0.00000  Uiso   1.00
C60    C     0.29613   0.79330   0.43807   0.00000  Uiso   1.00
C61    C     0.29957   0.77902   0.36421   0.00000  Uiso   1.00
C62    C     0.42487   0.75073   0.38488   0.00000  Uiso   1.00
C63    C     0.40480   0.74175   0.30717   0.00000  Uiso   1.00
C64    C     0.16379   0.74044   0.40429   0.00000  Uiso   1.00
C65    C     0.17494   0.67973   0.45867   0.00000  Uiso   1.00
C66    C     0.04057   0.63828   0.41471   0.00000  Uiso   1.00
C67    C     0.24793   0.88397   0.42595   0.00000  Uiso   1.00
C68    C     0.32979   0.94393   0.49855   0.00000  Uiso   1.00
C69    C     0.26623   0.02332   0.47284   0.00000  Uiso   1.00
H70    H     0.92838   0.84219   0.18942   0.00000  Uiso   1.00
H71    H     0.03026   0.80319   0.11809   0.00000  Uiso   1.00
H72    H     0.78037   0.73221   0.19187   0.00000  Uiso   1.00
H73    H     0.93520   0.99637   0.23175   0.00000  Uiso   1.00
H74    H     0.20510   0.75170   0.08087   0.00000  Uiso   1.00
H75    H     0.67818   0.60204   0.23645   0.00000  Uiso   1.00
H76    H     0.00467   0.15908   0.32054   0.00000  Uiso   1.00
H77    H     0.40543   0.77877   0.51197   0.00000  Uiso   1.00
H78    H     0.53349   0.73629   0.45834   0.00000  Uiso   1.00
H79    H     0.28359   0.66530   0.53212   0.00000  Uiso   1.00
H80    H     0.43842   0.92946   0.57200   0.00000  Uiso   1.00
H81    H     0.61354   0.69739   0.35703   0.00000  Uiso   1.00
H82    H     0.08661   0.54774   0.51261   0.00000  Uiso   1.00
H83    H     0.41310   0.10477   0.59670   0.00000  Uiso   1.00
O84    O     0.48494   0.69772   0.17785   0.00000  Uiso   1.00
O85    O     0.79363   0.50139   0.38197   0.00000  Uiso   1.00
O86    O     0.22198   0.23220   0.49229   0.00000  Uiso   1.00
N87    N     0.28367   0.74476   0.15323   0.00000  Uiso   1.00
N88    N     0.79102   0.60483   0.29868   0.00000  Uiso   1.00
N89    N     0.09624   0.12561   0.37730   0.00000  Uiso   1.00
N90    N     0.50344   0.71554   0.30182   0.00000  Uiso   1.00
N91    N     0.01080   0.57561   0.44728   0.00000  Uiso   1.00
N92    N     0.31602   0.09639   0.52590   0.00000  Uiso   1.00
C93    C     0.03768   0.67234   0.76331   0.00000  Uiso   1.00
C94    C     0.15919   0.70231   0.76929   0.00000  Uiso   1.00
C95    C     0.13892   0.71125   0.69154   0.00000  Uiso   1.00
C96    C     0.26416   0.73955   0.71208   0.00000  Uiso   1.00
C97    C     0.43145   0.78330   0.70692   0.00000  Uiso   1.00
C98    C     0.02342   0.74089   0.80937   0.00000  Uiso   1.00
C99    C     0.88899   0.78225   0.76532   0.00000  Uiso   1.00
C100   C     0.89994   0.84302   0.81962   0.00000  Uiso   1.00
C101   C     0.85642   0.94662   0.87671   0.00000  Uiso   1.00
C102   C     0.10754   0.59736   0.83103   0.00000  Uiso   1.00
C103   C     0.04384   0.51805   0.80521   0.00000  Uiso   1.00
C104   C     0.12560   0.45798   0.87775   0.00000  Uiso   1.00
C105   C     0.21270   0.33873   0.96847   0.00000  Uiso   1.00
C106   C     0.29613   0.70670   0.93807   0.00000  Uiso   1.00
C107   C     0.29957   0.72098   0.86421   0.00000  Uiso   1.00
C108   C     0.42487   0.74927   0.88488   0.00000  Uiso   1.00
C109   C     0.40480   0.75825   0.80717   0.00000  Uiso   1.00
C110   C     0.16379   0.75956   0.90429   0.00000  Uiso   1.00
C111   C     0.17494   0.82027   0.95867   0.00000  Uiso   1.00
C112   C     0.04057   0.86172   0.91471   0.00000  Uiso   1.00
C113   C     0.24793   0.61603   0.92595   0.00000  Uiso   1.00
C114   C     0.32979   0.55607   0.99855   0.00000  Uiso   1.00
C115   C     0.26623   0.47668   0.97284   0.00000  Uiso   1.00
H116   H     0.92838   0.65781   0.68942   0.00000  Uiso   1.00
H117   H     0.03026   0.69681   0.61809   0.00000  Uiso   1.00
H118   H     0.78037   0.76779   0.69187   0.00000  Uiso   1.00
H119   H     0.93520   0.50363   0.73175   0.00000  Uiso   1.00
H120   H     0.20510   0.74830   0.58087   0.00000  Uiso   1.00
H121   H     0.67818   0.89796   0.73645   0.00000  Uiso   1.00
H122   H     0.00467   0.34092   0.82054   0.00000  Uiso   1.00
H123   H     0.40543   0.72123   0.01197   0.00000  Uiso   1.00
H124   H     0.53349   0.76371   0.95834   0.00000  Uiso   1.00
H125   H     0.28359   0.83470   0.03212   0.00000  Uiso   1.00
H126   H     0.43842   0.57054   0.07200   0.00000  Uiso   1.00
H127   H     0.61354   0.80261   0.85703   0.00000  Uiso   1.00
H128   H     0.08661   0.95226   0.01261   0.00000  Uiso   1.00
H129   H     0.41310   0.39523   0.09670   0.00000  Uiso   1.00
O130   O     0.48494   0.80228   0.67785   0.00000  Uiso   1.00
O131   O     0.79363   0.99861   0.88197   0.00000  Uiso   1.00
O132   O     0.22198   0.26780   0.99229   0.00000  Uiso   1.00
N133   N     0.28367   0.75524   0.65323   0.00000  Uiso   1.00
N134   N     0.79102   0.89517   0.79868   0.00000  Uiso   1.00
N135   N     0.09624   0.37439   0.87730   0.00000  Uiso   1.00
N136   N     0.50344   0.78446   0.80182   0.00000  Uiso   1.00
N137   N     0.01080   0.92439   0.94728   0.00000  Uiso   1.00
N138   N     0.31602   0.40361   0.02590   0.00000  Uiso   1.00
C139   C     0.96232   0.17234   0.73669   0.00000  Uiso   1.00
C140   C     0.84081   0.20231   0.73071   0.00000  Uiso   1.00
C141   C     0.86108   0.21125   0.80846   0.00000  Uiso   1.00
C142   C     0.73584   0.23955   0.78792   0.00000  Uiso   1.00
C143   C     0.56855   0.28330   0.79308   0.00000  Uiso   1.00
C144   C     0.97658   0.24089   0.69063   0.00000  Uiso   1.00
C145   C     0.11101   0.28225   0.73468   0.00000  Uiso   1.00
C146   C     0.10006   0.34302   0.68038   0.00000  Uiso   1.00
C147   C     0.14358   0.44662   0.62329   0.00000  Uiso   1.00
C148   C     0.89246   0.09736   0.66897   0.00000  Uiso   1.00
C149   C     0.95616   0.01805   0.69479   0.00000  Uiso   1.00
C150   C     0.87440   0.95798   0.62225   0.00000  Uiso   1.00
C151   C     0.78730   0.83873   0.53153   0.00000  Uiso   1.00
C152   C     0.70387   0.20670   0.56193   0.00000  Uiso   1.00
C153   C     0.70043   0.22098   0.63579   0.00000  Uiso   1.00
C154   C     0.57513   0.24927   0.61512   0.00000  Uiso   1.00
C155   C     0.59520   0.25825   0.69283   0.00000  Uiso   1.00
C156   C     0.83621   0.25956   0.59571   0.00000  Uiso   1.00
C157   C     0.82506   0.32027   0.54133   0.00000  Uiso   1.00
C158   C     0.95943   0.36172   0.58529   0.00000  Uiso   1.00
C159   C     0.75207   0.11603   0.57405   0.00000  Uiso   1.00
C160   C     0.67021   0.05607   0.50145   0.00000  Uiso   1.00
C161   C     0.73377   0.97668   0.52716   0.00000  Uiso   1.00
H162   H     0.07162   0.15781   0.81058   0.00000  Uiso   1.00
H163   H     0.96974   0.19681   0.88191   0.00000  Uiso   1.00
H164   H     0.21963   0.26779   0.80813   0.00000  Uiso   1.00
H165   H     0.06480   0.00363   0.76825   0.00000  Uiso   1.00
H166   H     0.79490   0.24830   0.91913   0.00000  Uiso   1.00
H167   H     0.32182   0.39796   0.76355   0.00000  Uiso   1.00
H168   H     0.99533   0.84092   0.67946   0.00000  Uiso   1.00
H169   H     0.59457   0.22123   0.48803   0.00000  Uiso   1.00
H170   H     0.46651   0.26371   0.54166   0.00000  Uiso   1.00
H171   H     0.71641   0.33470   0.46788   0.00000  Uiso   1.00
H172   H     0.56158   0.07054   0.42800   0.00000  Uiso   1.00
H173   H     0.38646   0.30261   0.64297   0.00000  Uiso   1.00
H174   H     0.91339   0.45226   0.48739   0.00000  Uiso   1.00
H175   H     0.58690   0.89523   0.40330   0.00000  Uiso   1.00
O176   O     0.51506   0.30228   0.82215   0.00000  Uiso   1.00
O177   O     0.20637   0.49861   0.61803   0.00000  Uiso   1.00
O178   O     0.77802   0.76780   0.50771   0.00000  Uiso   1.00
N179   N     0.71633   0.25524   0.84677   0.00000  Uiso   1.00
N180   N     0.20898   0.39517   0.70132   0.00000  Uiso   1.00
N181   N     0.90376   0.87439   0.62270   0.00000  Uiso   1.00
N182   N     0.49656   0.28446   0.69818   0.00000  Uiso   1.00
N183   N     0.98920   0.42439   0.55272   0.00000  Uiso   1.00
N184   N     0.68398   0.90361   0.47410   0.00000  Uiso   1.00
