data_job_01151
_audit_creation_date              2018-12-19
_audit_creation_method            'Materials Studio'
_symmetry_space_group_name_H-M    'P1'
_symmetry_Int_Tables_number       1
_symmetry_cell_setting            triclinic
loop_
_symmetry_equiv_pos_as_xyz
  x,y,z
_cell_length_a                    14.6689
_cell_length_b                    33.9173
_cell_length_c                    8.9308
_cell_angle_alpha                 90.0000
_cell_angle_beta                  136.0730
_cell_angle_gamma                 90.0000
loop_
_atom_site_label
_atom_site_type_symbol
_atom_site_fract_x
_atom_site_fract_y
_atom_site_fract_z
_atom_site_U_iso_or_equiv
_atom_site_adp_type
_atom_site_occupancy
C1     C     0.80299   0.39880   0.21668   0.00000  Uiso   1.00
C2     C     0.73836   0.42086   0.26950   0.00000  Uiso   1.00
C3     C     0.71171   0.46097   0.24182   0.00000  Uiso   1.00
C4     C     0.65213   0.47550   0.29983   0.00000  Uiso   1.00
C5     C     0.55666   0.51353   0.36936   0.00000  Uiso   1.00
C6     C     0.92295   0.37825   0.42477   0.00000  Uiso   1.00
C7     C     0.05151   0.38253   0.52760   0.00000  Uiso   1.00
C8     C     0.14732   0.36119   0.71631   0.00000  Uiso   1.00
C9     C     0.33843   0.33303   0.02681   0.00000  Uiso   1.00
C10    C     0.70762   0.36609   0.06015   0.00000  Uiso   1.00
C11    C     0.65515   0.36014   0.85643   0.00000  Uiso   1.00
C12    C     0.56968   0.32855   0.73817   0.00000  Uiso   1.00
C13    C     0.42645   0.28151   0.48254   0.00000  Uiso   1.00
C14    C     0.74454   0.35327   0.36894   0.00000  Uiso   1.00
C15    C     0.70662   0.39613   0.35220   0.00000  Uiso   1.00
C16    C     0.64705   0.41060   0.41027   0.00000  Uiso   1.00
C17    C     0.62032   0.45073   0.38267   0.00000  Uiso   1.00
C18    C     0.89121   0.35352   0.50747   0.00000  Uiso   1.00
C19    C     0.98685   0.33216   0.69606   0.00000  Uiso   1.00
C20    C     0.11552   0.33641   0.79916   0.00000  Uiso   1.00
C21    C     0.67587   0.34136   0.14284   0.00000  Uiso   1.00
C22    C     0.59048   0.30977   0.02488   0.00000  Uiso   1.00
C23    C     0.53788   0.30377   0.82102   0.00000  Uiso   1.00
H24    H     0.82771   0.41805   0.15231   0.00000  Uiso   1.00
H25    H     0.73631   0.48010   0.17783   0.00000  Uiso   1.00
H26    H     0.07605   0.40167   0.46356   0.00000  Uiso   1.00
H27    H     0.67973   0.37928   0.79249   0.00000  Uiso   1.00
H28    H     0.62101   0.53800   0.24267   0.00000  Uiso   1.00
H29    H     0.33737   0.37260   0.84510   0.00000  Uiso   1.00
H30    H     0.50167   0.32539   0.43002   0.00000  Uiso   1.00
H31    H     0.71983   0.33401   0.43333   0.00000  Uiso   1.00
H32    H     0.62250   0.39146   0.47426   0.00000  Uiso   1.00
H33    H     0.96225   0.31302   0.76000   0.00000  Uiso   1.00
H34    H     0.56593   0.29064   0.08893   0.00000  Uiso   1.00
H35    H     0.52865   0.46605   0.48328   0.00000  Uiso   1.00
H36    H     0.24501   0.30065   0.08571   0.00000  Uiso   1.00
H37    H     0.40931   0.25345   0.67063   0.00000  Uiso   1.00
O38    O     0.51279   0.54133   0.38490   0.00000  Uiso   1.00
O39    O     0.45262   0.32433   0.17524   0.00000  Uiso   1.00
O40    O     0.35620   0.26240   0.31869   0.00000  Uiso   1.00
N41    N     0.61261   0.51318   0.29364   0.00000  Uiso   1.00
N42    N     0.28236   0.35855   0.85690   0.00000  Uiso   1.00
N43    N     0.50108   0.31441   0.53393   0.00000  Uiso   1.00
N44    N     0.56291   0.47447   0.42310   0.00000  Uiso   1.00
N45    N     0.23266   0.31984   0.98636   0.00000  Uiso   1.00
N46    N     0.45138   0.27570   0.66340   0.00000  Uiso   1.00
C47    C     0.19701   0.89880   0.28332   0.00000  Uiso   1.00
C48    C     0.26164   0.92086   0.23050   0.00000  Uiso   1.00
C49    C     0.28829   0.96097   0.25818   0.00000  Uiso   1.00
C50    C     0.34787   0.97550   0.20017   0.00000  Uiso   1.00
C51    C     0.44334   0.01353   0.13064   0.00000  Uiso   1.00
C52    C     0.07705   0.87825   0.07523   0.00000  Uiso   1.00
C53    C     0.94849   0.88253   0.97240   0.00000  Uiso   1.00
C54    C     0.85268   0.86119   0.78369   0.00000  Uiso   1.00
C55    C     0.66157   0.83303   0.47319   0.00000  Uiso   1.00
C56    C     0.29238   0.86609   0.43985   0.00000  Uiso   1.00
C57    C     0.34485   0.86014   0.64357   0.00000  Uiso   1.00
C58    C     0.43032   0.82855   0.76183   0.00000  Uiso   1.00
C59    C     0.57355   0.78151   0.01746   0.00000  Uiso   1.00
C60    C     0.25546   0.85327   0.13106   0.00000  Uiso   1.00
C61    C     0.29338   0.89613   0.14780   0.00000  Uiso   1.00
C62    C     0.35295   0.91060   0.08973   0.00000  Uiso   1.00
C63    C     0.37968   0.95073   0.11733   0.00000  Uiso   1.00
C64    C     0.10879   0.85352   0.99253   0.00000  Uiso   1.00
C65    C     0.01315   0.83216   0.80394   0.00000  Uiso   1.00
C66    C     0.88448   0.83641   0.70084   0.00000  Uiso   1.00
C67    C     0.32413   0.84136   0.35716   0.00000  Uiso   1.00
C68    C     0.40952   0.80977   0.47512   0.00000  Uiso   1.00
C69    C     0.46212   0.80377   0.67898   0.00000  Uiso   1.00
H70    H     0.17229   0.91805   0.34769   0.00000  Uiso   1.00
H71    H     0.26369   0.98010   0.32217   0.00000  Uiso   1.00
H72    H     0.92395   0.90167   0.03644   0.00000  Uiso   1.00
H73    H     0.32027   0.87928   0.70751   0.00000  Uiso   1.00
H74    H     0.37899   0.03800   0.25733   0.00000  Uiso   1.00
H75    H     0.66263   0.87260   0.65490   0.00000  Uiso   1.00
H76    H     0.49833   0.82539   0.06998   0.00000  Uiso   1.00
H77    H     0.28017   0.83401   0.06667   0.00000  Uiso   1.00
H78    H     0.37750   0.89146   0.02574   0.00000  Uiso   1.00
H79    H     0.03775   0.81302   0.74000   0.00000  Uiso   1.00
H80    H     0.43407   0.79064   0.41107   0.00000  Uiso   1.00
H81    H     0.47135   0.96605   0.01672   0.00000  Uiso   1.00
H82    H     0.75499   0.80065   0.41429   0.00000  Uiso   1.00
H83    H     0.59069   0.75345   0.82937   0.00000  Uiso   1.00
O84    O     0.48721   0.04133   0.11510   0.00000  Uiso   1.00
O85    O     0.54738   0.82433   0.32476   0.00000  Uiso   1.00
O86    O     0.64380   0.76240   0.18131   0.00000  Uiso   1.00
N87    N     0.38739   0.01318   0.20636   0.00000  Uiso   1.00
N88    N     0.71764   0.85855   0.64310   0.00000  Uiso   1.00
N89    N     0.49892   0.81441   0.96607   0.00000  Uiso   1.00
N90    N     0.43709   0.97447   0.07690   0.00000  Uiso   1.00
N91    N     0.76734   0.81984   0.51364   0.00000  Uiso   1.00
N92    N     0.54862   0.77570   0.83660   0.00000  Uiso   1.00
C93    C     0.19701   0.60120   0.78332   0.00000  Uiso   1.00
C94    C     0.26164   0.57914   0.73050   0.00000  Uiso   1.00
C95    C     0.28829   0.53903   0.75818   0.00000  Uiso   1.00
C96    C     0.34787   0.52450   0.70017   0.00000  Uiso   1.00
C97    C     0.44334   0.48647   0.63064   0.00000  Uiso   1.00
C98    C     0.07705   0.62175   0.57523   0.00000  Uiso   1.00
C99    C     0.94849   0.61747   0.47240   0.00000  Uiso   1.00
C100   C     0.85268   0.63881   0.28369   0.00000  Uiso   1.00
C101   C     0.66157   0.66697   0.97319   0.00000  Uiso   1.00
C102   C     0.29238   0.63391   0.93985   0.00000  Uiso   1.00
C103   C     0.34485   0.63986   0.14357   0.00000  Uiso   1.00
C104   C     0.43032   0.67145   0.26183   0.00000  Uiso   1.00
C105   C     0.57355   0.71849   0.51746   0.00000  Uiso   1.00
C106   C     0.25546   0.64673   0.63106   0.00000  Uiso   1.00
C107   C     0.29338   0.60387   0.64780   0.00000  Uiso   1.00
C108   C     0.35295   0.58940   0.58973   0.00000  Uiso   1.00
C109   C     0.37968   0.54927   0.61733   0.00000  Uiso   1.00
C110   C     0.10879   0.64648   0.49253   0.00000  Uiso   1.00
C111   C     0.01315   0.66784   0.30394   0.00000  Uiso   1.00
C112   C     0.88448   0.66359   0.20084   0.00000  Uiso   1.00
C113   C     0.32413   0.65864   0.85716   0.00000  Uiso   1.00
C114   C     0.40952   0.69023   0.97512   0.00000  Uiso   1.00
C115   C     0.46212   0.69623   0.17898   0.00000  Uiso   1.00
H116   H     0.17229   0.58195   0.84769   0.00000  Uiso   1.00
H117   H     0.26369   0.51990   0.82217   0.00000  Uiso   1.00
H118   H     0.92395   0.59833   0.53644   0.00000  Uiso   1.00
H119   H     0.32027   0.62072   0.20751   0.00000  Uiso   1.00
H120   H     0.37899   0.46200   0.75733   0.00000  Uiso   1.00
H121   H     0.66263   0.62740   0.15490   0.00000  Uiso   1.00
H122   H     0.49833   0.67461   0.56998   0.00000  Uiso   1.00
H123   H     0.28017   0.66599   0.56667   0.00000  Uiso   1.00
H124   H     0.37750   0.60854   0.52574   0.00000  Uiso   1.00
H125   H     0.03775   0.68698   0.24000   0.00000  Uiso   1.00
H126   H     0.43407   0.70936   0.91107   0.00000  Uiso   1.00
H127   H     0.47135   0.53395   0.51672   0.00000  Uiso   1.00
H128   H     0.75499   0.69935   0.91429   0.00000  Uiso   1.00
H129   H     0.59069   0.74655   0.32937   0.00000  Uiso   1.00
O130   O     0.48721   0.45867   0.61510   0.00000  Uiso   1.00
O131   O     0.54738   0.67567   0.82476   0.00000  Uiso   1.00
O132   O     0.64380   0.73760   0.68131   0.00000  Uiso   1.00
N133   N     0.38739   0.48682   0.70636   0.00000  Uiso   1.00
N134   N     0.71764   0.64145   0.14310   0.00000  Uiso   1.00
N135   N     0.49892   0.68559   0.46607   0.00000  Uiso   1.00
N136   N     0.43709   0.52553   0.57690   0.00000  Uiso   1.00
N137   N     0.76734   0.68016   0.01364   0.00000  Uiso   1.00
N138   N     0.54862   0.72430   0.33660   0.00000  Uiso   1.00
C139   C     0.80299   0.10120   0.71668   0.00000  Uiso   1.00
C140   C     0.73836   0.07914   0.76950   0.00000  Uiso   1.00
C141   C     0.71171   0.03903   0.74182   0.00000  Uiso   1.00
C142   C     0.65213   0.02450   0.79983   0.00000  Uiso   1.00
C143   C     0.55666   0.98647   0.86936   0.00000  Uiso   1.00
C144   C     0.92295   0.12175   0.92477   0.00000  Uiso   1.00
C145   C     0.05151   0.11747   0.02760   0.00000  Uiso   1.00
C146   C     0.14732   0.13881   0.21631   0.00000  Uiso   1.00
C147   C     0.33843   0.16697   0.52681   0.00000  Uiso   1.00
C148   C     0.70762   0.13391   0.56015   0.00000  Uiso   1.00
C149   C     0.65515   0.13986   0.35643   0.00000  Uiso   1.00
C150   C     0.56968   0.17145   0.23817   0.00000  Uiso   1.00
C151   C     0.42645   0.21849   0.98254   0.00000  Uiso   1.00
C152   C     0.74454   0.14673   0.86894   0.00000  Uiso   1.00
C153   C     0.70662   0.10387   0.85220   0.00000  Uiso   1.00
C154   C     0.64705   0.08940   0.91027   0.00000  Uiso   1.00
C155   C     0.62032   0.04927   0.88267   0.00000  Uiso   1.00
C156   C     0.89121   0.14648   0.00747   0.00000  Uiso   1.00
C157   C     0.98685   0.16784   0.19606   0.00000  Uiso   1.00
C158   C     0.11552   0.16359   0.29916   0.00000  Uiso   1.00
C159   C     0.67587   0.15864   0.64284   0.00000  Uiso   1.00
C160   C     0.59048   0.19023   0.52488   0.00000  Uiso   1.00
C161   C     0.53788   0.19623   0.32102   0.00000  Uiso   1.00
H162   H     0.82771   0.08195   0.65231   0.00000  Uiso   1.00
H163   H     0.73631   0.01990   0.67783   0.00000  Uiso   1.00
H164   H     0.07605   0.09833   0.96356   0.00000  Uiso   1.00
H165   H     0.67973   0.12072   0.29249   0.00000  Uiso   1.00
H166   H     0.62101   0.96200   0.74267   0.00000  Uiso   1.00
H167   H     0.33737   0.12740   0.34510   0.00000  Uiso   1.00
H168   H     0.50167   0.17461   0.93002   0.00000  Uiso   1.00
H169   H     0.71983   0.16599   0.93333   0.00000  Uiso   1.00
H170   H     0.62250   0.10854   0.97426   0.00000  Uiso   1.00
H171   H     0.96225   0.18698   0.26000   0.00000  Uiso   1.00
H172   H     0.56593   0.20936   0.58893   0.00000  Uiso   1.00
H173   H     0.52865   0.03395   0.98328   0.00000  Uiso   1.00
H174   H     0.24501   0.19935   0.58571   0.00000  Uiso   1.00
H175   H     0.40931   0.24655   0.17063   0.00000  Uiso   1.00
O176   O     0.51279   0.95867   0.88490   0.00000  Uiso   1.00
O177   O     0.45262   0.17567   0.67524   0.00000  Uiso   1.00
O178   O     0.35620   0.23760   0.81869   0.00000  Uiso   1.00
N179   N     0.61261   0.98682   0.79364   0.00000  Uiso   1.00
N180   N     0.28236   0.14145   0.35690   0.00000  Uiso   1.00
N181   N     0.50108   0.18559   0.03393   0.00000  Uiso   1.00
N182   N     0.56291   0.02553   0.92310   0.00000  Uiso   1.00
N183   N     0.23266   0.18016   0.48636   0.00000  Uiso   1.00
N184   N     0.45138   0.22430   0.16340   0.00000  Uiso   1.00
