data_job_03387
_audit_creation_date              2018-12-19
_audit_creation_method            'Materials Studio'
_symmetry_space_group_name_H-M    'P1'
_symmetry_Int_Tables_number       1
_symmetry_cell_setting            triclinic
loop_
_symmetry_equiv_pos_as_xyz
  x,y,z
_cell_length_a                    45.5027
_cell_length_b                    7.0218
_cell_length_c                    24.2614
_cell_angle_alpha                 90.0000
_cell_angle_beta                  90.0000
_cell_angle_gamma                 90.0000
loop_
_atom_site_label
_atom_site_type_symbol
_atom_site_fract_x
_atom_site_fract_y
_atom_site_fract_z
_atom_site_U_iso_or_equiv
_atom_site_adp_type
_atom_site_occupancy
C1     C     0.60750   0.51334   0.55618   0.00000  Uiso   1.00
C2     C     0.63236   0.36781   0.55462   0.00000  Uiso   1.00
C3     C     0.66199   0.40721   0.56193   0.00000  Uiso   1.00
C4     C     0.68128   0.25438   0.55900   0.00000  Uiso   1.00
C5     C     0.72141   0.05665   0.55807   0.00000  Uiso   1.00
C6     C     0.59142   0.49448   0.50130   0.00000  Uiso   1.00
C7     C     0.58662   0.64040   0.46377   0.00000  Uiso   1.00
C8     C     0.57145   0.59420   0.41596   0.00000  Uiso   1.00
C9     C     0.54800   0.59315   0.33225   0.00000  Uiso   1.00
C10    C     0.58609   0.44370   0.60013   0.00000  Uiso   1.00
C11    C     0.57680   0.54694   0.64569   0.00000  Uiso   1.00
C12    C     0.55714   0.45799   0.68108   0.00000  Uiso   1.00
C13    C     0.52541   0.37810   0.75082   0.00000  Uiso   1.00
C14    C     0.58907   0.17185   0.53798   0.00000  Uiso   1.00
C15    C     0.62235   0.18233   0.54474   0.00000  Uiso   1.00
C16    C     0.64161   0.02939   0.54180   0.00000  Uiso   1.00
C17    C     0.67126   0.06856   0.54910   0.00000  Uiso   1.00
C18    C     0.58141   0.30901   0.49141   0.00000  Uiso   1.00
C19    C     0.56624   0.26258   0.44364   0.00000  Uiso   1.00
C20    C     0.56143   0.40838   0.40605   0.00000  Uiso   1.00
C21    C     0.57608   0.25822   0.59025   0.00000  Uiso   1.00
C22    C     0.55642   0.16911   0.62556   0.00000  Uiso   1.00
C23    C     0.54711   0.27218   0.67118   0.00000  Uiso   1.00
H24    H     0.61529   0.65775   0.56387   0.00000  Uiso   1.00
H25    H     0.66973   0.55078   0.56957   0.00000  Uiso   1.00
H26    H     0.59437   0.78393   0.47144   0.00000  Uiso   1.00
H27    H     0.58455   0.69047   0.65333   0.00000  Uiso   1.00
H28    H     0.72567   0.35040   0.57152   0.00000  Uiso   1.00
H29    H     0.56677   0.84202   0.36460   0.00000  Uiso   1.00
H30    H     0.54606   0.64495   0.74816   0.00000  Uiso   1.00
H31    H     0.58128   0.02744   0.53028   0.00000  Uiso   1.00
H32    H     0.63385   0.88587   0.53415   0.00000  Uiso   1.00
H33    H     0.55850   0.11903   0.43601   0.00000  Uiso   1.00
H34    H     0.54868   0.02557   0.61790   0.00000  Uiso   1.00
H35    H     0.69656   0.81074   0.54277   0.00000  Uiso   1.00
H36    H     0.53765   0.30236   0.33585   0.00000  Uiso   1.00
H37    H     0.51695   0.10528   0.71940   0.00000  Uiso   1.00
O38    O     0.74631   0.99883   0.56028   0.00000  Uiso   1.00
O39    O     0.53783   0.64382   0.28881   0.00000  Uiso   1.00
O40    O     0.51067   0.38527   0.79203   0.00000  Uiso   1.00
N41    N     0.71160   0.24281   0.56424   0.00000  Uiso   1.00
N42    N     0.56304   0.70244   0.37077   0.00000  Uiso   1.00
N43    N     0.54368   0.51822   0.72936   0.00000  Uiso   1.00
N44    N     0.69594   0.95242   0.54877   0.00000  Uiso   1.00
N45    N     0.54737   0.41205   0.35530   0.00000  Uiso   1.00
N46    N     0.52801   0.22783   0.71388   0.00000  Uiso   1.00
C47    C     0.89250   0.98666   0.55618   0.00000  Uiso   1.00
C48    C     0.86764   0.13219   0.55462   0.00000  Uiso   1.00
C49    C     0.83801   0.09279   0.56193   0.00000  Uiso   1.00
C50    C     0.81872   0.24562   0.55900   0.00000  Uiso   1.00
C51    C     0.77859   0.44335   0.55807   0.00000  Uiso   1.00
C52    C     0.90858   0.00552   0.50130   0.00000  Uiso   1.00
C53    C     0.91338   0.85960   0.46377   0.00000  Uiso   1.00
C54    C     0.92855   0.90580   0.41596   0.00000  Uiso   1.00
C55    C     0.95200   0.90685   0.33225   0.00000  Uiso   1.00
C56    C     0.91391   0.05630   0.60013   0.00000  Uiso   1.00
C57    C     0.92320   0.95306   0.64569   0.00000  Uiso   1.00
C58    C     0.94286   0.04201   0.68108   0.00000  Uiso   1.00
C59    C     0.97459   0.12190   0.75082   0.00000  Uiso   1.00
C60    C     0.91093   0.32815   0.53798   0.00000  Uiso   1.00
C61    C     0.87765   0.31767   0.54474   0.00000  Uiso   1.00
C62    C     0.85839   0.47061   0.54180   0.00000  Uiso   1.00
C63    C     0.82874   0.43144   0.54910   0.00000  Uiso   1.00
C64    C     0.91859   0.19099   0.49141   0.00000  Uiso   1.00
C65    C     0.93376   0.23742   0.44364   0.00000  Uiso   1.00
C66    C     0.93857   0.09162   0.40605   0.00000  Uiso   1.00
C67    C     0.92392   0.24178   0.59025   0.00000  Uiso   1.00
C68    C     0.94358   0.33089   0.62556   0.00000  Uiso   1.00
C69    C     0.95289   0.22782   0.67118   0.00000  Uiso   1.00
H70    H     0.88471   0.84225   0.56387   0.00000  Uiso   1.00
H71    H     0.83027   0.94922   0.56957   0.00000  Uiso   1.00
H72    H     0.90563   0.71607   0.47144   0.00000  Uiso   1.00
H73    H     0.91545   0.80953   0.65333   0.00000  Uiso   1.00
H74    H     0.77433   0.14960   0.57152   0.00000  Uiso   1.00
H75    H     0.93323   0.65798   0.36460   0.00000  Uiso   1.00
H76    H     0.95394   0.85505   0.74816   0.00000  Uiso   1.00
H77    H     0.91872   0.47256   0.53028   0.00000  Uiso   1.00
H78    H     0.86615   0.61413   0.53415   0.00000  Uiso   1.00
H79    H     0.94150   0.38097   0.43601   0.00000  Uiso   1.00
H80    H     0.95132   0.47443   0.61790   0.00000  Uiso   1.00
H81    H     0.80344   0.68926   0.54277   0.00000  Uiso   1.00
H82    H     0.96235   0.19764   0.33585   0.00000  Uiso   1.00
H83    H     0.98305   0.39472   0.71940   0.00000  Uiso   1.00
O84    O     0.75369   0.50117   0.56028   0.00000  Uiso   1.00
O85    O     0.96217   0.85618   0.28881   0.00000  Uiso   1.00
O86    O     0.98933   0.11473   0.79203   0.00000  Uiso   1.00
N87    N     0.78840   0.25719   0.56424   0.00000  Uiso   1.00
N88    N     0.93696   0.79756   0.37077   0.00000  Uiso   1.00
N89    N     0.95632   0.98178   0.72936   0.00000  Uiso   1.00
N90    N     0.80406   0.54758   0.54877   0.00000  Uiso   1.00
N91    N     0.95263   0.08795   0.35530   0.00000  Uiso   1.00
N92    N     0.97199   0.27217   0.71388   0.00000  Uiso   1.00
C93    C     0.39250   0.01334   0.94382   0.00000  Uiso   1.00
C94    C     0.36764   0.86781   0.94538   0.00000  Uiso   1.00
C95    C     0.33801   0.90721   0.93807   0.00000  Uiso   1.00
C96    C     0.31872   0.75438   0.94100   0.00000  Uiso   1.00
C97    C     0.27859   0.55665   0.94193   0.00000  Uiso   1.00
C98    C     0.40858   0.99448   0.99870   0.00000  Uiso   1.00
C99    C     0.41338   0.14040   0.03623   0.00000  Uiso   1.00
C100   C     0.42855   0.09420   0.08404   0.00000  Uiso   1.00
C101   C     0.45200   0.09315   0.16775   0.00000  Uiso   1.00
C102   C     0.41391   0.94370   0.89987   0.00000  Uiso   1.00
C103   C     0.42320   0.04694   0.85431   0.00000  Uiso   1.00
C104   C     0.44286   0.95799   0.81892   0.00000  Uiso   1.00
C105   C     0.47459   0.87810   0.74918   0.00000  Uiso   1.00
C106   C     0.41093   0.67185   0.96202   0.00000  Uiso   1.00
C107   C     0.37765   0.68233   0.95526   0.00000  Uiso   1.00
C108   C     0.35839   0.52939   0.95820   0.00000  Uiso   1.00
C109   C     0.32874   0.56856   0.95090   0.00000  Uiso   1.00
C110   C     0.41859   0.80901   0.00859   0.00000  Uiso   1.00
C111   C     0.43376   0.76258   0.05636   0.00000  Uiso   1.00
C112   C     0.43857   0.90838   0.09395   0.00000  Uiso   1.00
C113   C     0.42392   0.75822   0.90975   0.00000  Uiso   1.00
C114   C     0.44358   0.66911   0.87444   0.00000  Uiso   1.00
C115   C     0.45289   0.77218   0.82882   0.00000  Uiso   1.00
H116   H     0.38471   0.15775   0.93613   0.00000  Uiso   1.00
H117   H     0.33027   0.05078   0.93043   0.00000  Uiso   1.00
H118   H     0.40563   0.28393   0.02856   0.00000  Uiso   1.00
H119   H     0.41545   0.19047   0.84667   0.00000  Uiso   1.00
H120   H     0.27433   0.85040   0.92848   0.00000  Uiso   1.00
H121   H     0.43323   0.34202   0.13540   0.00000  Uiso   1.00
H122   H     0.45394   0.14495   0.75184   0.00000  Uiso   1.00
H123   H     0.41872   0.52744   0.96972   0.00000  Uiso   1.00
H124   H     0.36615   0.38587   0.96585   0.00000  Uiso   1.00
H125   H     0.44150   0.61903   0.06399   0.00000  Uiso   1.00
H126   H     0.45132   0.52557   0.88210   0.00000  Uiso   1.00
H127   H     0.30344   0.31074   0.95723   0.00000  Uiso   1.00
H128   H     0.46235   0.80236   0.16415   0.00000  Uiso   1.00
H129   H     0.48305   0.60528   0.78060   0.00000  Uiso   1.00
O130   O     0.25369   0.49883   0.93972   0.00000  Uiso   1.00
O131   O     0.46217   0.14382   0.21119   0.00000  Uiso   1.00
O132   O     0.48933   0.88527   0.70797   0.00000  Uiso   1.00
N133   N     0.28840   0.74281   0.93576   0.00000  Uiso   1.00
N134   N     0.43696   0.20244   0.12923   0.00000  Uiso   1.00
N135   N     0.45632   0.01822   0.77064   0.00000  Uiso   1.00
N136   N     0.30406   0.45242   0.95123   0.00000  Uiso   1.00
N137   N     0.45263   0.91205   0.14470   0.00000  Uiso   1.00
N138   N     0.47199   0.72783   0.78612   0.00000  Uiso   1.00
C139   C     0.10750   0.48666   0.94382   0.00000  Uiso   1.00
C140   C     0.13236   0.63219   0.94538   0.00000  Uiso   1.00
C141   C     0.16199   0.59279   0.93807   0.00000  Uiso   1.00
C142   C     0.18128   0.74562   0.94100   0.00000  Uiso   1.00
C143   C     0.22141   0.94335   0.94193   0.00000  Uiso   1.00
C144   C     0.09142   0.50552   0.99870   0.00000  Uiso   1.00
C145   C     0.08662   0.35960   0.03623   0.00000  Uiso   1.00
C146   C     0.07145   0.40580   0.08404   0.00000  Uiso   1.00
C147   C     0.04800   0.40685   0.16775   0.00000  Uiso   1.00
C148   C     0.08609   0.55630   0.89987   0.00000  Uiso   1.00
C149   C     0.07680   0.45306   0.85431   0.00000  Uiso   1.00
C150   C     0.05714   0.54201   0.81892   0.00000  Uiso   1.00
C151   C     0.02541   0.62190   0.74918   0.00000  Uiso   1.00
C152   C     0.08907   0.82815   0.96202   0.00000  Uiso   1.00
C153   C     0.12235   0.81767   0.95526   0.00000  Uiso   1.00
C154   C     0.14161   0.97061   0.95820   0.00000  Uiso   1.00
C155   C     0.17126   0.93144   0.95090   0.00000  Uiso   1.00
C156   C     0.08141   0.69099   0.00859   0.00000  Uiso   1.00
C157   C     0.06624   0.73742   0.05636   0.00000  Uiso   1.00
C158   C     0.06143   0.59162   0.09395   0.00000  Uiso   1.00
C159   C     0.07608   0.74178   0.90975   0.00000  Uiso   1.00
C160   C     0.05642   0.83089   0.87444   0.00000  Uiso   1.00
C161   C     0.04711   0.72782   0.82882   0.00000  Uiso   1.00
H162   H     0.11529   0.34225   0.93613   0.00000  Uiso   1.00
H163   H     0.16973   0.44922   0.93043   0.00000  Uiso   1.00
H164   H     0.09437   0.21607   0.02856   0.00000  Uiso   1.00
H165   H     0.08455   0.30953   0.84667   0.00000  Uiso   1.00
H166   H     0.22567   0.64960   0.92848   0.00000  Uiso   1.00
H167   H     0.06677   0.15798   0.13540   0.00000  Uiso   1.00
H168   H     0.04606   0.35505   0.75184   0.00000  Uiso   1.00
H169   H     0.08128   0.97256   0.96972   0.00000  Uiso   1.00
H170   H     0.13385   0.11413   0.96585   0.00000  Uiso   1.00
H171   H     0.05850   0.88097   0.06399   0.00000  Uiso   1.00
H172   H     0.04868   0.97443   0.88210   0.00000  Uiso   1.00
H173   H     0.19656   0.18926   0.95723   0.00000  Uiso   1.00
H174   H     0.03765   0.69764   0.16415   0.00000  Uiso   1.00
H175   H     0.01695   0.89472   0.78060   0.00000  Uiso   1.00
O176   O     0.24631   0.00117   0.93972   0.00000  Uiso   1.00
O177   O     0.03783   0.35618   0.21119   0.00000  Uiso   1.00
O178   O     0.01067   0.61473   0.70797   0.00000  Uiso   1.00
N179   N     0.21160   0.75719   0.93576   0.00000  Uiso   1.00
N180   N     0.06304   0.29756   0.12923   0.00000  Uiso   1.00
N181   N     0.04368   0.48178   0.77064   0.00000  Uiso   1.00
N182   N     0.19594   0.04758   0.95123   0.00000  Uiso   1.00
N183   N     0.04737   0.58795   0.14470   0.00000  Uiso   1.00
N184   N     0.02801   0.77217   0.78612   0.00000  Uiso   1.00
C185   C     0.39250   0.48666   0.44382   0.00000  Uiso   1.00
C186   C     0.36764   0.63219   0.44538   0.00000  Uiso   1.00
C187   C     0.33801   0.59279   0.43807   0.00000  Uiso   1.00
C188   C     0.31872   0.74562   0.44100   0.00000  Uiso   1.00
C189   C     0.27859   0.94335   0.44193   0.00000  Uiso   1.00
C190   C     0.40858   0.50552   0.49870   0.00000  Uiso   1.00
C191   C     0.41338   0.35960   0.53623   0.00000  Uiso   1.00
C192   C     0.42855   0.40580   0.58404   0.00000  Uiso   1.00
C193   C     0.45200   0.40685   0.66775   0.00000  Uiso   1.00
C194   C     0.41391   0.55630   0.39987   0.00000  Uiso   1.00
C195   C     0.42320   0.45306   0.35431   0.00000  Uiso   1.00
C196   C     0.44286   0.54201   0.31892   0.00000  Uiso   1.00
C197   C     0.47459   0.62190   0.24918   0.00000  Uiso   1.00
C198   C     0.41093   0.82815   0.46202   0.00000  Uiso   1.00
C199   C     0.37765   0.81767   0.45526   0.00000  Uiso   1.00
C200   C     0.35839   0.97061   0.45820   0.00000  Uiso   1.00
C201   C     0.32874   0.93144   0.45090   0.00000  Uiso   1.00
C202   C     0.41859   0.69099   0.50859   0.00000  Uiso   1.00
C203   C     0.43376   0.73742   0.55636   0.00000  Uiso   1.00
C204   C     0.43857   0.59162   0.59395   0.00000  Uiso   1.00
C205   C     0.42392   0.74178   0.40975   0.00000  Uiso   1.00
C206   C     0.44358   0.83089   0.37444   0.00000  Uiso   1.00
C207   C     0.45289   0.72782   0.32882   0.00000  Uiso   1.00
H208   H     0.38471   0.34225   0.43613   0.00000  Uiso   1.00
H209   H     0.33027   0.44922   0.43043   0.00000  Uiso   1.00
H210   H     0.40563   0.21607   0.52856   0.00000  Uiso   1.00
H211   H     0.41545   0.30953   0.34667   0.00000  Uiso   1.00
H212   H     0.27433   0.64960   0.42848   0.00000  Uiso   1.00
H213   H     0.43323   0.15798   0.63540   0.00000  Uiso   1.00
H214   H     0.45394   0.35505   0.25184   0.00000  Uiso   1.00
H215   H     0.41872   0.97256   0.46972   0.00000  Uiso   1.00
H216   H     0.36615   0.11413   0.46585   0.00000  Uiso   1.00
H217   H     0.44150   0.88097   0.56399   0.00000  Uiso   1.00
H218   H     0.45132   0.97443   0.38210   0.00000  Uiso   1.00
H219   H     0.30344   0.18926   0.45723   0.00000  Uiso   1.00
H220   H     0.46235   0.69764   0.66415   0.00000  Uiso   1.00
H221   H     0.48305   0.89472   0.28060   0.00000  Uiso   1.00
O222   O     0.25369   0.00117   0.43972   0.00000  Uiso   1.00
O223   O     0.46217   0.35618   0.71119   0.00000  Uiso   1.00
O224   O     0.48933   0.61473   0.20797   0.00000  Uiso   1.00
N225   N     0.28840   0.75719   0.43576   0.00000  Uiso   1.00
N226   N     0.43696   0.29756   0.62923   0.00000  Uiso   1.00
N227   N     0.45632   0.48178   0.27064   0.00000  Uiso   1.00
N228   N     0.30406   0.04758   0.45123   0.00000  Uiso   1.00
N229   N     0.45263   0.58795   0.64470   0.00000  Uiso   1.00
N230   N     0.47199   0.77217   0.28612   0.00000  Uiso   1.00
C231   C     0.10750   0.01334   0.44382   0.00000  Uiso   1.00
C232   C     0.13236   0.86781   0.44538   0.00000  Uiso   1.00
C233   C     0.16199   0.90721   0.43807   0.00000  Uiso   1.00
C234   C     0.18128   0.75438   0.44100   0.00000  Uiso   1.00
C235   C     0.22141   0.55665   0.44193   0.00000  Uiso   1.00
C236   C     0.09142   0.99448   0.49870   0.00000  Uiso   1.00
C237   C     0.08662   0.14040   0.53623   0.00000  Uiso   1.00
C238   C     0.07145   0.09420   0.58404   0.00000  Uiso   1.00
C239   C     0.04800   0.09315   0.66775   0.00000  Uiso   1.00
C240   C     0.08609   0.94370   0.39987   0.00000  Uiso   1.00
C241   C     0.07680   0.04694   0.35431   0.00000  Uiso   1.00
C242   C     0.05714   0.95799   0.31892   0.00000  Uiso   1.00
C243   C     0.02541   0.87810   0.24918   0.00000  Uiso   1.00
C244   C     0.08907   0.67185   0.46202   0.00000  Uiso   1.00
C245   C     0.12235   0.68233   0.45526   0.00000  Uiso   1.00
C246   C     0.14161   0.52939   0.45820   0.00000  Uiso   1.00
C247   C     0.17126   0.56856   0.45090   0.00000  Uiso   1.00
C248   C     0.08141   0.80901   0.50859   0.00000  Uiso   1.00
C249   C     0.06624   0.76258   0.55636   0.00000  Uiso   1.00
C250   C     0.06143   0.90838   0.59395   0.00000  Uiso   1.00
C251   C     0.07608   0.75822   0.40975   0.00000  Uiso   1.00
C252   C     0.05642   0.66911   0.37444   0.00000  Uiso   1.00
C253   C     0.04711   0.77218   0.32882   0.00000  Uiso   1.00
H254   H     0.11529   0.15775   0.43613   0.00000  Uiso   1.00
H255   H     0.16973   0.05078   0.43043   0.00000  Uiso   1.00
H256   H     0.09437   0.28393   0.52856   0.00000  Uiso   1.00
H257   H     0.08455   0.19047   0.34667   0.00000  Uiso   1.00
H258   H     0.22567   0.85040   0.42848   0.00000  Uiso   1.00
H259   H     0.06677   0.34202   0.63540   0.00000  Uiso   1.00
H260   H     0.04606   0.14495   0.25184   0.00000  Uiso   1.00
H261   H     0.08128   0.52744   0.46972   0.00000  Uiso   1.00
H262   H     0.13385   0.38587   0.46585   0.00000  Uiso   1.00
H263   H     0.05850   0.61903   0.56399   0.00000  Uiso   1.00
H264   H     0.04868   0.52557   0.38210   0.00000  Uiso   1.00
H265   H     0.19656   0.31074   0.45723   0.00000  Uiso   1.00
H266   H     0.03765   0.80236   0.66415   0.00000  Uiso   1.00
H267   H     0.01695   0.60528   0.28060   0.00000  Uiso   1.00
O268   O     0.24631   0.49883   0.43972   0.00000  Uiso   1.00
O269   O     0.03783   0.14382   0.71119   0.00000  Uiso   1.00
O270   O     0.01067   0.88527   0.20797   0.00000  Uiso   1.00
N271   N     0.21160   0.74281   0.43576   0.00000  Uiso   1.00
N272   N     0.06304   0.20244   0.62923   0.00000  Uiso   1.00
N273   N     0.04368   0.01822   0.27064   0.00000  Uiso   1.00
N274   N     0.19594   0.45242   0.45123   0.00000  Uiso   1.00
N275   N     0.04737   0.91205   0.64470   0.00000  Uiso   1.00
N276   N     0.02801   0.72783   0.28612   0.00000  Uiso   1.00
C277   C     0.60750   0.98666   0.05618   0.00000  Uiso   1.00
C278   C     0.63236   0.13219   0.05462   0.00000  Uiso   1.00
C279   C     0.66199   0.09279   0.06193   0.00000  Uiso   1.00
C280   C     0.68128   0.24562   0.05900   0.00000  Uiso   1.00
C281   C     0.72141   0.44335   0.05807   0.00000  Uiso   1.00
C282   C     0.59142   0.00552   0.00130   0.00000  Uiso   1.00
C283   C     0.58662   0.85960   0.96377   0.00000  Uiso   1.00
C284   C     0.57145   0.90580   0.91596   0.00000  Uiso   1.00
C285   C     0.54800   0.90685   0.83225   0.00000  Uiso   1.00
C286   C     0.58609   0.05630   0.10013   0.00000  Uiso   1.00
C287   C     0.57680   0.95306   0.14569   0.00000  Uiso   1.00
C288   C     0.55714   0.04201   0.18108   0.00000  Uiso   1.00
C289   C     0.52541   0.12190   0.25082   0.00000  Uiso   1.00
C290   C     0.58907   0.32815   0.03798   0.00000  Uiso   1.00
C291   C     0.62235   0.31767   0.04474   0.00000  Uiso   1.00
C292   C     0.64161   0.47061   0.04180   0.00000  Uiso   1.00
C293   C     0.67126   0.43144   0.04910   0.00000  Uiso   1.00
C294   C     0.58141   0.19099   0.99141   0.00000  Uiso   1.00
C295   C     0.56624   0.23742   0.94364   0.00000  Uiso   1.00
C296   C     0.56143   0.09162   0.90605   0.00000  Uiso   1.00
C297   C     0.57608   0.24178   0.09025   0.00000  Uiso   1.00
C298   C     0.55642   0.33089   0.12556   0.00000  Uiso   1.00
C299   C     0.54711   0.22782   0.17118   0.00000  Uiso   1.00
H300   H     0.61529   0.84225   0.06387   0.00000  Uiso   1.00
H301   H     0.66973   0.94922   0.06957   0.00000  Uiso   1.00
H302   H     0.59437   0.71607   0.97144   0.00000  Uiso   1.00
H303   H     0.58455   0.80953   0.15333   0.00000  Uiso   1.00
H304   H     0.72567   0.14960   0.07152   0.00000  Uiso   1.00
H305   H     0.56677   0.65798   0.86460   0.00000  Uiso   1.00
H306   H     0.54606   0.85505   0.24816   0.00000  Uiso   1.00
H307   H     0.58128   0.47256   0.03028   0.00000  Uiso   1.00
H308   H     0.63385   0.61413   0.03415   0.00000  Uiso   1.00
H309   H     0.55850   0.38097   0.93601   0.00000  Uiso   1.00
H310   H     0.54868   0.47443   0.11790   0.00000  Uiso   1.00
H311   H     0.69656   0.68926   0.04277   0.00000  Uiso   1.00
H312   H     0.53765   0.19764   0.83585   0.00000  Uiso   1.00
H313   H     0.51695   0.39472   0.21940   0.00000  Uiso   1.00
O314   O     0.74631   0.50117   0.06028   0.00000  Uiso   1.00
O315   O     0.53783   0.85618   0.78881   0.00000  Uiso   1.00
O316   O     0.51067   0.11473   0.29203   0.00000  Uiso   1.00
N317   N     0.71160   0.25719   0.06424   0.00000  Uiso   1.00
N318   N     0.56304   0.79756   0.87077   0.00000  Uiso   1.00
N319   N     0.54368   0.98178   0.22936   0.00000  Uiso   1.00
N320   N     0.69594   0.54758   0.04877   0.00000  Uiso   1.00
N321   N     0.54737   0.08795   0.85530   0.00000  Uiso   1.00
N322   N     0.52801   0.27217   0.21388   0.00000  Uiso   1.00
C323   C     0.89250   0.51334   0.05618   0.00000  Uiso   1.00
C324   C     0.86764   0.36781   0.05462   0.00000  Uiso   1.00
C325   C     0.83801   0.40721   0.06193   0.00000  Uiso   1.00
C326   C     0.81872   0.25438   0.05900   0.00000  Uiso   1.00
C327   C     0.77859   0.05665   0.05807   0.00000  Uiso   1.00
C328   C     0.90858   0.49448   0.00130   0.00000  Uiso   1.00
C329   C     0.91338   0.64040   0.96377   0.00000  Uiso   1.00
C330   C     0.92855   0.59420   0.91596   0.00000  Uiso   1.00
C331   C     0.95200   0.59315   0.83225   0.00000  Uiso   1.00
C332   C     0.91391   0.44370   0.10013   0.00000  Uiso   1.00
C333   C     0.92320   0.54694   0.14569   0.00000  Uiso   1.00
C334   C     0.94286   0.45799   0.18108   0.00000  Uiso   1.00
C335   C     0.97459   0.37810   0.25082   0.00000  Uiso   1.00
C336   C     0.91093   0.17185   0.03798   0.00000  Uiso   1.00
C337   C     0.87765   0.18233   0.04474   0.00000  Uiso   1.00
C338   C     0.85839   0.02939   0.04180   0.00000  Uiso   1.00
C339   C     0.82874   0.06856   0.04910   0.00000  Uiso   1.00
C340   C     0.91859   0.30901   0.99141   0.00000  Uiso   1.00
C341   C     0.93376   0.26258   0.94364   0.00000  Uiso   1.00
C342   C     0.93857   0.40838   0.90605   0.00000  Uiso   1.00
C343   C     0.92392   0.25822   0.09025   0.00000  Uiso   1.00
C344   C     0.94358   0.16911   0.12556   0.00000  Uiso   1.00
C345   C     0.95289   0.27218   0.17118   0.00000  Uiso   1.00
H346   H     0.88471   0.65775   0.06387   0.00000  Uiso   1.00
H347   H     0.83027   0.55078   0.06957   0.00000  Uiso   1.00
H348   H     0.90563   0.78393   0.97144   0.00000  Uiso   1.00
H349   H     0.91545   0.69047   0.15333   0.00000  Uiso   1.00
H350   H     0.77433   0.35040   0.07152   0.00000  Uiso   1.00
H351   H     0.93323   0.84202   0.86460   0.00000  Uiso   1.00
H352   H     0.95394   0.64495   0.24816   0.00000  Uiso   1.00
H353   H     0.91872   0.02744   0.03028   0.00000  Uiso   1.00
H354   H     0.86615   0.88587   0.03415   0.00000  Uiso   1.00
H355   H     0.94150   0.11903   0.93601   0.00000  Uiso   1.00
H356   H     0.95132   0.02557   0.11790   0.00000  Uiso   1.00
H357   H     0.80344   0.81074   0.04277   0.00000  Uiso   1.00
H358   H     0.96235   0.30236   0.83585   0.00000  Uiso   1.00
H359   H     0.98305   0.10528   0.21940   0.00000  Uiso   1.00
O360   O     0.75369   0.99883   0.06028   0.00000  Uiso   1.00
O361   O     0.96217   0.64382   0.78881   0.00000  Uiso   1.00
O362   O     0.98933   0.38527   0.29203   0.00000  Uiso   1.00
N363   N     0.78840   0.24281   0.06424   0.00000  Uiso   1.00
N364   N     0.93696   0.70244   0.87077   0.00000  Uiso   1.00
N365   N     0.95632   0.51822   0.22936   0.00000  Uiso   1.00
N366   N     0.80406   0.95242   0.04877   0.00000  Uiso   1.00
N367   N     0.95263   0.41205   0.85530   0.00000  Uiso   1.00
N368   N     0.97199   0.22783   0.21388   0.00000  Uiso   1.00
