data_job_02775
_audit_creation_date              2018-12-19
_audit_creation_method            'Materials Studio'
_symmetry_space_group_name_H-M    'P1'
_symmetry_Int_Tables_number       1
_symmetry_cell_setting            triclinic
loop_
_symmetry_equiv_pos_as_xyz
  x,y,z
_cell_length_a                    9.3985
_cell_length_b                    15.0061
_cell_length_c                    18.8899
_cell_angle_alpha                 90.0000
_cell_angle_beta                  89.7655
_cell_angle_gamma                 90.0000
loop_
_atom_site_label
_atom_site_type_symbol
_atom_site_fract_x
_atom_site_fract_y
_atom_site_fract_z
_atom_site_U_iso_or_equiv
_atom_site_adp_type
_atom_site_occupancy
C1     C     0.94102   0.08361   0.77187   0.00000  Uiso   1.00
C2     C     0.98271   0.00713   0.82072   0.00000  Uiso   1.00
C3     C     0.92173   0.98849   0.88610   0.00000  Uiso   1.00
C4     C     0.97485   0.91555   0.92268   0.00000  Uiso   1.00
C5     C     0.02288   0.80479   0.00279   0.00000  Uiso   1.00
C6     C     0.07687   0.13668   0.75850   0.00000  Uiso   1.00
C7     C     0.09505   0.22697   0.77156   0.00000  Uiso   1.00
C8     C     0.22743   0.26309   0.75575   0.00000  Uiso   1.00
C9     C     0.42160   0.35347   0.73922   0.00000  Uiso   1.00
C10    C     0.90245   0.04097   0.70123   0.00000  Uiso   1.00
C11    C     0.77398   0.05081   0.66612   0.00000  Uiso   1.00
C12    C     0.75952   0.00636   0.60208   0.00000  Uiso   1.00
C13    C     0.68288   0.94813   0.49663   0.00000  Uiso   1.00
C14    C     0.14378   0.98721   0.72058   0.00000  Uiso   1.00
C15    C     0.09285   0.95477   0.79286   0.00000  Uiso   1.00
C16    C     0.14607   0.88184   0.82936   0.00000  Uiso   1.00
C17    C     0.08518   0.86309   0.89477   0.00000  Uiso   1.00
C18    C     0.18700   0.08433   0.73065   0.00000  Uiso   1.00
C19    C     0.31938   0.12032   0.71481   0.00000  Uiso   1.00
C20    C     0.33776   0.21064   0.72784   0.00000  Uiso   1.00
C21    C     0.01258   0.98861   0.67337   0.00000  Uiso   1.00
C22    C     0.99831   0.94414   0.60938   0.00000  Uiso   1.00
C23    C     0.86985   0.95390   0.57417   0.00000  Uiso   1.00
H24    H     0.85528   0.12438   0.79355   0.00000  Uiso   1.00
H25    H     0.83651   0.02904   0.90764   0.00000  Uiso   1.00
H26    H     0.00980   0.26748   0.79311   0.00000  Uiso   1.00
H27    H     0.68878   0.09133   0.68769   0.00000  Uiso   1.00
H28    H     0.86431   0.90025   0.02185   0.00000  Uiso   1.00
H29    H     0.22967   0.40303   0.78034   0.00000  Uiso   1.00
H30    H     0.55274   0.03159   0.55804   0.00000  Uiso   1.00
H31    H     0.22953   0.94645   0.69889   0.00000  Uiso   1.00
H32    H     0.23129   0.84133   0.80778   0.00000  Uiso   1.00
H33    H     0.40458   0.07978   0.69325   0.00000  Uiso   1.00
H34    H     0.08356   0.90363   0.58784   0.00000  Uiso   1.00
H35    H     0.18473   0.74791   0.94081   0.00000  Uiso   1.00
H36    H     0.55009   0.25069   0.69929   0.00000  Uiso   1.00
H37    H     0.87317   0.87925   0.47699   0.00000  Uiso   1.00
O38    O     0.01896   0.75816   0.05468   0.00000  Uiso   1.00
O39    O     0.49828   0.41779   0.73781   0.00000  Uiso   1.00
O40    O     0.61018   0.93047   0.44616   0.00000  Uiso   1.00
N41    N     0.93946   0.87881   0.98783   0.00000  Uiso   1.00
N42    N     0.28105   0.34888   0.76203   0.00000  Uiso   1.00
N43    N     0.64820   0.00163   0.55419   0.00000  Uiso   1.00
N44    N     0.11187   0.79684   0.94422   0.00000  Uiso   1.00
N45    N     0.45347   0.26690   0.71842   0.00000  Uiso   1.00
N46    N     0.82062   0.91966   0.51058   0.00000  Uiso   1.00
C47    C     0.05898   0.58361   0.72813   0.00000  Uiso   1.00
C48    C     0.01729   0.50713   0.67928   0.00000  Uiso   1.00
C49    C     0.07827   0.48849   0.61390   0.00000  Uiso   1.00
C50    C     0.02515   0.41555   0.57732   0.00000  Uiso   1.00
C51    C     0.97712   0.30479   0.49721   0.00000  Uiso   1.00
C52    C     0.92313   0.63668   0.74150   0.00000  Uiso   1.00
C53    C     0.90495   0.72697   0.72844   0.00000  Uiso   1.00
C54    C     0.77257   0.76309   0.74425   0.00000  Uiso   1.00
C55    C     0.57840   0.85347   0.76078   0.00000  Uiso   1.00
C56    C     0.09755   0.54097   0.79877   0.00000  Uiso   1.00
C57    C     0.22602   0.55081   0.83388   0.00000  Uiso   1.00
C58    C     0.24048   0.50636   0.89792   0.00000  Uiso   1.00
C59    C     0.31712   0.44813   0.00337   0.00000  Uiso   1.00
C60    C     0.85622   0.48721   0.77942   0.00000  Uiso   1.00
C61    C     0.90715   0.45477   0.70714   0.00000  Uiso   1.00
C62    C     0.85393   0.38184   0.67064   0.00000  Uiso   1.00
C63    C     0.91482   0.36309   0.60523   0.00000  Uiso   1.00
C64    C     0.81300   0.58433   0.76935   0.00000  Uiso   1.00
C65    C     0.68062   0.62032   0.78519   0.00000  Uiso   1.00
C66    C     0.66224   0.71064   0.77216   0.00000  Uiso   1.00
C67    C     0.98742   0.48861   0.82663   0.00000  Uiso   1.00
C68    C     0.00169   0.44414   0.89062   0.00000  Uiso   1.00
C69    C     0.13015   0.45390   0.92583   0.00000  Uiso   1.00
H70    H     0.14472   0.62438   0.70645   0.00000  Uiso   1.00
H71    H     0.16349   0.52904   0.59236   0.00000  Uiso   1.00
H72    H     0.99020   0.76748   0.70689   0.00000  Uiso   1.00
H73    H     0.31122   0.59133   0.81231   0.00000  Uiso   1.00
H74    H     0.13569   0.40025   0.47815   0.00000  Uiso   1.00
H75    H     0.77033   0.90303   0.71966   0.00000  Uiso   1.00
H76    H     0.44726   0.53159   0.94196   0.00000  Uiso   1.00
H77    H     0.77047   0.44645   0.80111   0.00000  Uiso   1.00
H78    H     0.76871   0.34133   0.69222   0.00000  Uiso   1.00
H79    H     0.59542   0.57978   0.80675   0.00000  Uiso   1.00
H80    H     0.91644   0.40363   0.91216   0.00000  Uiso   1.00
H81    H     0.81527   0.24791   0.55919   0.00000  Uiso   1.00
H82    H     0.44991   0.75069   0.80071   0.00000  Uiso   1.00
H83    H     0.12683   0.37925   0.02301   0.00000  Uiso   1.00
O84    O     0.98104   0.25816   0.44532   0.00000  Uiso   1.00
O85    O     0.50172   0.91779   0.76219   0.00000  Uiso   1.00
O86    O     0.38982   0.43047   0.05384   0.00000  Uiso   1.00
N87    N     0.06054   0.37881   0.51217   0.00000  Uiso   1.00
N88    N     0.71895   0.84888   0.73797   0.00000  Uiso   1.00
N89    N     0.35180   0.50163   0.94581   0.00000  Uiso   1.00
N90    N     0.88813   0.29684   0.55578   0.00000  Uiso   1.00
N91    N     0.54653   0.76690   0.78158   0.00000  Uiso   1.00
N92    N     0.17938   0.41966   0.98942   0.00000  Uiso   1.00
C93    C     0.05898   0.91639   0.22813   0.00000  Uiso   1.00
C94    C     0.01729   0.99287   0.17928   0.00000  Uiso   1.00
C95    C     0.07827   0.01151   0.11390   0.00000  Uiso   1.00
C96    C     0.02515   0.08445   0.07732   0.00000  Uiso   1.00
C97    C     0.97712   0.19521   0.99721   0.00000  Uiso   1.00
C98    C     0.92313   0.86332   0.24150   0.00000  Uiso   1.00
C99    C     0.90495   0.77303   0.22844   0.00000  Uiso   1.00
C100   C     0.77257   0.73691   0.24425   0.00000  Uiso   1.00
C101   C     0.57840   0.64653   0.26078   0.00000  Uiso   1.00
C102   C     0.09755   0.95903   0.29877   0.00000  Uiso   1.00
C103   C     0.22602   0.94919   0.33388   0.00000  Uiso   1.00
C104   C     0.24048   0.99364   0.39792   0.00000  Uiso   1.00
C105   C     0.31712   0.05187   0.50337   0.00000  Uiso   1.00
C106   C     0.85622   0.01279   0.27942   0.00000  Uiso   1.00
C107   C     0.90715   0.04523   0.20714   0.00000  Uiso   1.00
C108   C     0.85393   0.11816   0.17064   0.00000  Uiso   1.00
C109   C     0.91482   0.13691   0.10523   0.00000  Uiso   1.00
C110   C     0.81300   0.91567   0.26935   0.00000  Uiso   1.00
C111   C     0.68062   0.87968   0.28519   0.00000  Uiso   1.00
C112   C     0.66224   0.78936   0.27216   0.00000  Uiso   1.00
C113   C     0.98742   0.01139   0.32663   0.00000  Uiso   1.00
C114   C     0.00169   0.05586   0.39062   0.00000  Uiso   1.00
C115   C     0.13015   0.04610   0.42583   0.00000  Uiso   1.00
H116   H     0.14472   0.87562   0.20645   0.00000  Uiso   1.00
H117   H     0.16349   0.97096   0.09236   0.00000  Uiso   1.00
H118   H     0.99020   0.73252   0.20689   0.00000  Uiso   1.00
H119   H     0.31122   0.90867   0.31231   0.00000  Uiso   1.00
H120   H     0.13569   0.09975   0.97815   0.00000  Uiso   1.00
H121   H     0.77033   0.59697   0.21966   0.00000  Uiso   1.00
H122   H     0.44726   0.96841   0.44196   0.00000  Uiso   1.00
H123   H     0.77047   0.05355   0.30111   0.00000  Uiso   1.00
H124   H     0.76871   0.15867   0.19222   0.00000  Uiso   1.00
H125   H     0.59542   0.92022   0.30675   0.00000  Uiso   1.00
H126   H     0.91644   0.09637   0.41216   0.00000  Uiso   1.00
H127   H     0.81527   0.25209   0.05919   0.00000  Uiso   1.00
H128   H     0.44991   0.74931   0.30071   0.00000  Uiso   1.00
H129   H     0.12683   0.12075   0.52301   0.00000  Uiso   1.00
O130   O     0.98104   0.24184   0.94532   0.00000  Uiso   1.00
O131   O     0.50172   0.58221   0.26219   0.00000  Uiso   1.00
O132   O     0.38982   0.06953   0.55384   0.00000  Uiso   1.00
N133   N     0.06054   0.12119   0.01217   0.00000  Uiso   1.00
N134   N     0.71895   0.65112   0.23797   0.00000  Uiso   1.00
N135   N     0.35180   0.99837   0.44581   0.00000  Uiso   1.00
N136   N     0.88813   0.20316   0.05578   0.00000  Uiso   1.00
N137   N     0.54653   0.73310   0.28158   0.00000  Uiso   1.00
N138   N     0.17938   0.08034   0.48942   0.00000  Uiso   1.00
C139   C     0.94102   0.41639   0.27187   0.00000  Uiso   1.00
C140   C     0.98271   0.49287   0.32072   0.00000  Uiso   1.00
C141   C     0.92173   0.51151   0.38610   0.00000  Uiso   1.00
C142   C     0.97485   0.58445   0.42268   0.00000  Uiso   1.00
C143   C     0.02288   0.69521   0.50279   0.00000  Uiso   1.00
C144   C     0.07687   0.36332   0.25850   0.00000  Uiso   1.00
C145   C     0.09505   0.27303   0.27156   0.00000  Uiso   1.00
C146   C     0.22743   0.23691   0.25575   0.00000  Uiso   1.00
C147   C     0.42160   0.14653   0.23922   0.00000  Uiso   1.00
C148   C     0.90245   0.45903   0.20123   0.00000  Uiso   1.00
C149   C     0.77398   0.44919   0.16612   0.00000  Uiso   1.00
C150   C     0.75952   0.49364   0.10208   0.00000  Uiso   1.00
C151   C     0.68288   0.55187   0.99663   0.00000  Uiso   1.00
C152   C     0.14378   0.51279   0.22058   0.00000  Uiso   1.00
C153   C     0.09285   0.54523   0.29286   0.00000  Uiso   1.00
C154   C     0.14607   0.61816   0.32936   0.00000  Uiso   1.00
C155   C     0.08518   0.63691   0.39477   0.00000  Uiso   1.00
C156   C     0.18700   0.41567   0.23065   0.00000  Uiso   1.00
C157   C     0.31938   0.37968   0.21481   0.00000  Uiso   1.00
C158   C     0.33776   0.28936   0.22784   0.00000  Uiso   1.00
C159   C     0.01258   0.51139   0.17337   0.00000  Uiso   1.00
C160   C     0.99831   0.55586   0.10938   0.00000  Uiso   1.00
C161   C     0.86985   0.54610   0.07417   0.00000  Uiso   1.00
H162   H     0.85528   0.37562   0.29355   0.00000  Uiso   1.00
H163   H     0.83651   0.47096   0.40764   0.00000  Uiso   1.00
H164   H     0.00980   0.23252   0.29311   0.00000  Uiso   1.00
H165   H     0.68878   0.40867   0.18769   0.00000  Uiso   1.00
H166   H     0.86431   0.59975   0.52185   0.00000  Uiso   1.00
H167   H     0.22967   0.09697   0.28034   0.00000  Uiso   1.00
H168   H     0.55274   0.46841   0.05804   0.00000  Uiso   1.00
H169   H     0.22953   0.55355   0.19889   0.00000  Uiso   1.00
H170   H     0.23129   0.65867   0.30778   0.00000  Uiso   1.00
H171   H     0.40458   0.42022   0.19325   0.00000  Uiso   1.00
H172   H     0.08356   0.59637   0.08784   0.00000  Uiso   1.00
H173   H     0.18473   0.75209   0.44081   0.00000  Uiso   1.00
H174   H     0.55009   0.24931   0.19929   0.00000  Uiso   1.00
H175   H     0.87317   0.62075   0.97699   0.00000  Uiso   1.00
O176   O     0.01896   0.74184   0.55468   0.00000  Uiso   1.00
O177   O     0.49828   0.08221   0.23781   0.00000  Uiso   1.00
O178   O     0.61018   0.56953   0.94616   0.00000  Uiso   1.00
N179   N     0.93946   0.62119   0.48783   0.00000  Uiso   1.00
N180   N     0.28105   0.15112   0.26203   0.00000  Uiso   1.00
N181   N     0.64820   0.49837   0.05419   0.00000  Uiso   1.00
N182   N     0.11187   0.70316   0.44422   0.00000  Uiso   1.00
N183   N     0.45347   0.23310   0.21842   0.00000  Uiso   1.00
N184   N     0.82062   0.58034   0.01058   0.00000  Uiso   1.00
