data_job_00783
_audit_creation_date              2018-12-19
_audit_creation_method            'Materials Studio'
_symmetry_space_group_name_H-M    'P1'
_symmetry_Int_Tables_number       1
_symmetry_cell_setting            triclinic
loop_
_symmetry_equiv_pos_as_xyz
  x,y,z
_cell_length_a                    21.4874
_cell_length_b                    44.4605
_cell_length_c                    7.2753
_cell_angle_alpha                 88.8334
_cell_angle_beta                  90.1991
_cell_angle_gamma                 97.0025
loop_
_atom_site_label
_atom_site_type_symbol
_atom_site_fract_x
_atom_site_fract_y
_atom_site_fract_z
_atom_site_U_iso_or_equiv
_atom_site_adp_type
_atom_site_occupancy
C1     C     0.69729   0.64006   0.31570   0.00000  Uiso   1.00
C2     C     0.67181   0.66835   0.23968   0.00000  Uiso   1.00
C3     C     0.64752   0.69005   0.34323   0.00000  Uiso   1.00
C4     C     0.62660   0.71426   0.24784   0.00000  Uiso   1.00
C5     C     0.58651   0.75782   0.15900   0.00000  Uiso   1.00
C6     C     0.66000   0.61330   0.22140   0.00000  Uiso   1.00
C7     C     0.62579   0.58870   0.30959   0.00000  Uiso   1.00
C8     C     0.59494   0.56656   0.19879   0.00000  Uiso   1.00
C9     C     0.53656   0.52464   0.08157   0.00000  Uiso   1.00
C10    C     0.76418   0.64154   0.24374   0.00000  Uiso   1.00
C11    C     0.81757   0.64070   0.35070   0.00000  Uiso   1.00
C12    C     0.87442   0.64233   0.25870   0.00000  Uiso   1.00
C13    C     0.97780   0.64427   0.17616   0.00000  Uiso   1.00
C14    C     0.70332   0.64446   0.96214   0.00000  Uiso   1.00
C15    C     0.67509   0.67074   0.04764   0.00000  Uiso   1.00
C16    C     0.65420   0.69492   0.95205   0.00000  Uiso   1.00
C17    C     0.62989   0.71666   0.05545   0.00000  Uiso   1.00
C18    C     0.66328   0.61569   0.02936   0.00000  Uiso   1.00
C19    C     0.63247   0.59358   0.91840   0.00000  Uiso   1.00
C20    C     0.59822   0.56896   0.00640   0.00000  Uiso   1.00
C21    C     0.76746   0.64394   0.05169   0.00000  Uiso   1.00
C22    C     0.82425   0.64557   0.95951   0.00000  Uiso   1.00
C23    C     0.87771   0.64473   0.06631   0.00000  Uiso   1.00
H24    H     0.69473   0.63819   0.46522   0.00000  Uiso   1.00
H25    H     0.64498   0.68819   0.49185   0.00000  Uiso   1.00
H26    H     0.62327   0.58686   0.45820   0.00000  Uiso   1.00
H27    H     0.81501   0.63884   0.49930   0.00000  Uiso   1.00
H28    H     0.59126   0.74467   0.43669   0.00000  Uiso   1.00
H29    H     0.54548   0.53100   0.36574   0.00000  Uiso   1.00
H30    H     0.94981   0.64062   0.45241   0.00000  Uiso   1.00
H31    H     0.70588   0.64632   0.81261   0.00000  Uiso   1.00
H32    H     0.65674   0.69677   0.80344   0.00000  Uiso   1.00
H33    H     0.63502   0.59544   0.76979   0.00000  Uiso   1.00
H34    H     0.82677   0.64742   0.81090   0.00000  Uiso   1.00
H35    H     0.60080   0.75163   0.87794   0.00000  Uiso   1.00
H36    H     0.55502   0.53796   0.80700   0.00000  Uiso   1.00
H37    H     0.95935   0.64758   0.89367   0.00000  Uiso   1.00
O38    O     0.56349   0.78118   0.16305   0.00000  Uiso   1.00
O39    O     0.50344   0.50085   0.06997   0.00000  Uiso   1.00
O40    O     0.03391   0.64468   0.18369   0.00000  Uiso   1.00
N41    N     0.60026   0.73939   0.30645   0.00000  Uiso   1.00
N42    N     0.55745   0.53962   0.24012   0.00000  Uiso   1.00
N43    N     0.93546   0.64210   0.32115   0.00000  Uiso   1.00
N44    N     0.60539   0.74314   0.00579   0.00000  Uiso   1.00
N45    N     0.56259   0.54337   0.93946   0.00000  Uiso   1.00
N46    N     0.94060   0.64585   0.02049   0.00000  Uiso   1.00
C47    C     0.26620   0.12237   0.57044   0.00000  Uiso   1.00
C48    C     0.22770   0.14455   0.47302   0.00000  Uiso   1.00
C49    C     0.19706   0.16627   0.55754   0.00000  Uiso   1.00
C50    C     0.16432   0.18436   0.44433   0.00000  Uiso   1.00
C51    C     0.10482   0.21933   0.32209   0.00000  Uiso   1.00
C52    C     0.23732   0.09081   0.51503   0.00000  Uiso   1.00
C53    C     0.21479   0.06734   0.63489   0.00000  Uiso   1.00
C54    C     0.19015   0.04020   0.55703   0.00000  Uiso   1.00
C55    C     0.14564   0.99172   0.50003   0.00000  Uiso   1.00
C56    C     0.33104   0.12730   0.48248   0.00000  Uiso   1.00
C57    C     0.38732   0.13451   0.57497   0.00000  Uiso   1.00
C58    C     0.44159   0.13808   0.46971   0.00000  Uiso   1.00
C59    C     0.54259   0.14627   0.36217   0.00000  Uiso   1.00
C60    C     0.26253   0.11588   0.21906   0.00000  Uiso   1.00
C61    C     0.22571   0.14102   0.28216   0.00000  Uiso   1.00
C62    C     0.19301   0.15909   0.16878   0.00000  Uiso   1.00
C63    C     0.16233   0.18083   0.25313   0.00000  Uiso   1.00
C64    C     0.23533   0.08728   0.32418   0.00000  Uiso   1.00
C65    C     0.21073   0.06017   0.24613   0.00000  Uiso   1.00
C66    C     0.18816   0.03666   0.36583   0.00000  Uiso   1.00
C67    C     0.32905   0.12378   0.29162   0.00000  Uiso   1.00
C68    C     0.38325   0.12734   0.18621   0.00000  Uiso   1.00
C69    C     0.43959   0.13455   0.27851   0.00000  Uiso   1.00
H70    H     0.26775   0.12511   0.71903   0.00000  Uiso   1.00
H71    H     0.19861   0.16899   0.70525   0.00000  Uiso   1.00
H72    H     0.21634   0.07007   0.78258   0.00000  Uiso   1.00
H73    H     0.38884   0.13724   0.72266   0.00000  Uiso   1.00
H74    H     0.12107   0.21607   0.60581   0.00000  Uiso   1.00
H75    H     0.15846   0.00751   0.76887   0.00000  Uiso   1.00
H76    H     0.52221   0.14913   0.64253   0.00000  Uiso   1.00
H77    H     0.26098   0.11314   0.07047   0.00000  Uiso   1.00
H78    H     0.19147   0.15636   0.02109   0.00000  Uiso   1.00
H79    H     0.20920   0.05745   0.09843   0.00000  Uiso   1.00
H80    H     0.38169   0.12461   0.03851   0.00000  Uiso   1.00
H81    H     0.11527   0.20582   0.05052   0.00000  Uiso   1.00
H82    H     0.15267   0.99726   0.21359   0.00000  Uiso   1.00
H83    H     0.51641   0.13888   0.08725   0.00000  Uiso   1.00
O84    O     0.07255   0.23958   0.30740   0.00000  Uiso   1.00
O85    O     0.12163   0.96596   0.52133   0.00000  Uiso   1.00
O86    O     0.59885   0.15176   0.35557   0.00000  Uiso   1.00
N87    N     0.12925   0.20773   0.48189   0.00000  Uiso   1.00
N88    N     0.16421   0.01274   0.63434   0.00000  Uiso   1.00
N89    N     0.50428   0.14513   0.51624   0.00000  Uiso   1.00
N90    N     0.12613   0.20221   0.18310   0.00000  Uiso   1.00
N91    N     0.16109   0.00722   0.33555   0.00000  Uiso   1.00
N92    N     0.50116   0.13962   0.21744   0.00000  Uiso   1.00
C93    C     0.58076   0.35801   0.50585   0.00000  Uiso   1.00
C94    C     0.53013   0.33525   0.59366   0.00000  Uiso   1.00
C95    C     0.49000   0.31389   0.50071   0.00000  Uiso   1.00
C96    C     0.44692   0.29515   0.60590   0.00000  Uiso   1.00
C97    C     0.36872   0.25943   0.71315   0.00000  Uiso   1.00
C98    C     0.56658   0.38921   0.56437   0.00000  Uiso   1.00
C99    C     0.55711   0.41321   0.44679   0.00000  Uiso   1.00
C100   C     0.54472   0.43989   0.52733   0.00000  Uiso   1.00
C101   C     0.52316   0.48794   0.58910   0.00000  Uiso   1.00
C102   C     0.64203   0.35282   0.60080   0.00000  Uiso   1.00
C103   C     0.69599   0.34622   0.51386   0.00000  Uiso   1.00
C104   C     0.74712   0.34227   0.62507   0.00000  Uiso   1.00
C105   C     0.84269   0.33381   0.74342   0.00000  Uiso   1.00
C106   C     0.57562   0.36273   0.85795   0.00000  Uiso   1.00
C107   C     0.52734   0.33782   0.78491   0.00000  Uiso   1.00
C108   C     0.48431   0.31911   0.89027   0.00000  Uiso   1.00
C109   C     0.44412   0.29771   0.79749   0.00000  Uiso   1.00
C110   C     0.56379   0.39177   0.75561   0.00000  Uiso   1.00
C111   C     0.55142   0.41842   0.83634   0.00000  Uiso   1.00
C112   C     0.54192   0.44245   0.71892   0.00000  Uiso   1.00
C113   C     0.63924   0.35538   0.79205   0.00000  Uiso   1.00
C114   C     0.69030   0.35144   0.90342   0.00000  Uiso   1.00
C115   C     0.74432   0.34484   0.81666   0.00000  Uiso   1.00
H116   H     0.58293   0.35602   0.35696   0.00000  Uiso   1.00
H117   H     0.49217   0.31191   0.35270   0.00000  Uiso   1.00
H118   H     0.55928   0.41122   0.29880   0.00000  Uiso   1.00
H119   H     0.69813   0.34424   0.36586   0.00000  Uiso   1.00
H120   H     0.39030   0.26415   0.43233   0.00000  Uiso   1.00
H121   H     0.53182   0.47354   0.31865   0.00000  Uiso   1.00
H122   H     0.82462   0.33231   0.46007   0.00000  Uiso   1.00
H123   H     0.57345   0.36473   0.00685   0.00000  Uiso   1.00
H124   H     0.48216   0.32109   0.03826   0.00000  Uiso   1.00
H125   H     0.54927   0.42040   0.98434   0.00000  Uiso   1.00
H126   H     0.68812   0.35342   0.05141   0.00000  Uiso   1.00
H127   H     0.38218   0.27160   0.98875   0.00000  Uiso   1.00
H128   H     0.52370   0.48099   0.87507   0.00000  Uiso   1.00
H129   H     0.81650   0.33976   0.01649   0.00000  Uiso   1.00
O130   O     0.32635   0.23902   0.71947   0.00000  Uiso   1.00
O131   O     0.51202   0.51373   0.57033   0.00000  Uiso   1.00
O132   O     0.89617   0.32844   0.75587   0.00000  Uiso   1.00
N133   N     0.40092   0.27189   0.55897   0.00000  Uiso   1.00
N134   N     0.53322   0.46765   0.45269   0.00000  Uiso   1.00
N135   N     0.80697   0.33562   0.58490   0.00000  Uiso   1.00
N136   N     0.39655   0.27590   0.85838   0.00000  Uiso   1.00
N137   N     0.52885   0.47166   0.75210   0.00000  Uiso   1.00
N138   N     0.80260   0.33963   0.88431   0.00000  Uiso   1.00
C139   C     0.24616   0.83992   0.76592   0.00000  Uiso   1.00
C140   C     0.20675   0.81153   0.84122   0.00000  Uiso   1.00
C141   C     0.17128   0.78990   0.73715   0.00000  Uiso   1.00
C142   C     0.13852   0.76558   0.83192   0.00000  Uiso   1.00
C143   C     0.07690   0.72189   0.91966   0.00000  Uiso   1.00
C144   C     0.22256   0.86656   0.86145   0.00000  Uiso   1.00
C145   C     0.20038   0.89121   0.77436   0.00000  Uiso   1.00
C146   C     0.18094   0.91321   0.88617   0.00000  Uiso   1.00
C147   C     0.14389   0.95497   0.00530   0.00000  Uiso   1.00
C148   C     0.31255   0.83843   0.83727   0.00000  Uiso   1.00
C149   C     0.36605   0.83944   0.72988   0.00000  Uiso   1.00
C150   C     0.42238   0.83777   0.82134   0.00000  Uiso   1.00
C151   C     0.52506   0.83586   0.90294   0.00000  Uiso   1.00
C152   C     0.25109   0.83518   0.11932   0.00000  Uiso   1.00
C153   C     0.20943   0.80896   0.03318   0.00000  Uiso   1.00
C154   C     0.17672   0.78466   0.12814   0.00000  Uiso   1.00
C155   C     0.14121   0.76300   0.02422   0.00000  Uiso   1.00
C156   C     0.22523   0.86399   0.05339   0.00000  Uiso   1.00
C157   C     0.20583   0.88596   0.16536   0.00000  Uiso   1.00
C158   C     0.18362   0.91063   0.07847   0.00000  Uiso   1.00
C159   C     0.31523   0.83586   0.02923   0.00000  Uiso   1.00
C160   C     0.37149   0.83419   0.12088   0.00000  Uiso   1.00
C161   C     0.42506   0.83519   0.01364   0.00000  Uiso   1.00
H162   H     0.24408   0.84193   0.61648   0.00000  Uiso   1.00
H163   H     0.16921   0.79190   0.58860   0.00000  Uiso   1.00
H164   H     0.19832   0.89319   0.62582   0.00000  Uiso   1.00
H165   H     0.36396   0.84143   0.58134   0.00000  Uiso   1.00
H166   H     0.08737   0.73531   0.64235   0.00000  Uiso   1.00
H167   H     0.14876   0.94889   0.72082   0.00000  Uiso   1.00
H168   H     0.49804   0.83974   0.62702   0.00000  Uiso   1.00
H169   H     0.25317   0.83318   0.26877   0.00000  Uiso   1.00
H170   H     0.17880   0.78267   0.27669   0.00000  Uiso   1.00
H171   H     0.20791   0.88396   0.31390   0.00000  Uiso   1.00
H172   H     0.37354   0.83220   0.26942   0.00000  Uiso   1.00
H173   H     0.09515   0.72782   0.20082   0.00000  Uiso   1.00
H174   H     0.15654   0.94140   0.27929   0.00000  Uiso   1.00
H175   H     0.50582   0.83225   0.18550   0.00000  Uiso   1.00
O176   O     0.04216   0.69850   0.91503   0.00000  Uiso   1.00
O177   O     0.12271   0.97872   0.01797   0.00000  Uiso   1.00
O178   O     0.58096   0.83551   0.89492   0.00000  Uiso   1.00
N179   N     0.09942   0.74048   0.77270   0.00000  Uiso   1.00
N180   N     0.15681   0.94016   0.84606   0.00000  Uiso   1.00
N181   N     0.48336   0.83812   0.75837   0.00000  Uiso   1.00
N182   N     0.10360   0.73645   0.07321   0.00000  Uiso   1.00
N183   N     0.16099   0.93613   0.14657   0.00000  Uiso   1.00
N184   N     0.48754   0.83409   0.05888   0.00000  Uiso   1.00
C185   C     0.31139   0.61252   0.53808   0.00000  Uiso   1.00
C186   C     0.35997   0.63771   0.60647   0.00000  Uiso   1.00
C187   C     0.40167   0.65645   0.49713   0.00000  Uiso   1.00
C188   C     0.44242   0.67811   0.58599   0.00000  Uiso   1.00
C189   C     0.51803   0.71678   0.66309   0.00000  Uiso   1.00
C190   C     0.32472   0.58369   0.64013   0.00000  Uiso   1.00
C191   C     0.33677   0.55702   0.55908   0.00000  Uiso   1.00
C192   C     0.34783   0.53320   0.67628   0.00000  Uiso   1.00
C193   C     0.36866   0.48801   0.80564   0.00000  Uiso   1.00
C194   C     0.24825   0.61969   0.60903   0.00000  Uiso   1.00
C195   C     0.19601   0.62326   0.50184   0.00000  Uiso   1.00
C196   C     0.14268   0.62974   0.59286   0.00000  Uiso   1.00
C197   C     0.04479   0.64043   0.67393   0.00000  Uiso   1.00
C198   C     0.30959   0.61767   0.89032   0.00000  Uiso   1.00
C199   C     0.35899   0.64050   0.79780   0.00000  Uiso   1.00
C200   C     0.39969   0.66214   0.88684   0.00000  Uiso   1.00
C201   C     0.44144   0.68091   0.77765   0.00000  Uiso   1.00
C202   C     0.32374   0.58649   0.83145   0.00000  Uiso   1.00
C203   C     0.33478   0.56270   0.94880   0.00000  Uiso   1.00
C204   C     0.34685   0.53600   0.86795   0.00000  Uiso   1.00
C205   C     0.24727   0.62248   0.80035   0.00000  Uiso   1.00
C206   C     0.19402   0.62895   0.89156   0.00000  Uiso   1.00
C207   C     0.14170   0.63254   0.78453   0.00000  Uiso   1.00
H208   H     0.31215   0.61035   0.38913   0.00000  Uiso   1.00
H209   H     0.40242   0.65428   0.34908   0.00000  Uiso   1.00
H210   H     0.33752   0.55486   0.41103   0.00000  Uiso   1.00
H211   H     0.19678   0.62110   0.35379   0.00000  Uiso   1.00
H212   H     0.50209   0.70421   0.38905   0.00000  Uiso   1.00
H213   H     0.36521   0.49458   0.51967   0.00000  Uiso   1.00
H214   H     0.06844   0.63425   0.39898   0.00000  Uiso   1.00
H215   H     0.30883   0.61984   0.03928   0.00000  Uiso   1.00
H216   H     0.39892   0.66430   0.03490   0.00000  Uiso   1.00
H217   H     0.33402   0.56487   0.09684   0.00000  Uiso   1.00
H218   H     0.19328   0.63111   0.03961   0.00000  Uiso   1.00
H219   H     0.49925   0.71234   0.94569   0.00000  Uiso   1.00
H220   H     0.36237   0.50270   0.07630   0.00000  Uiso   1.00
H221   H     0.06560   0.64238   0.95562   0.00000  Uiso   1.00
O222   O     0.56001   0.73734   0.65276   0.00000  Uiso   1.00
O223   O     0.38042   0.46231   0.82412   0.00000  Uiso   1.00
O224   O     0.99106   0.64556   0.66579   0.00000  Uiso   1.00
N225   N     0.48905   0.70003   0.52065   0.00000  Uiso   1.00
N226   N     0.36109   0.50403   0.64277   0.00000  Uiso   1.00
N227   N     0.08362   0.63461   0.52994   0.00000  Uiso   1.00
N228   N     0.48752   0.70440   0.82018   0.00000  Uiso   1.00
N229   N     0.35956   0.50841   0.94229   0.00000  Uiso   1.00
N230   N     0.08210   0.63898   0.82947   0.00000  Uiso   1.00
C231   C     0.88800   0.14894   0.63523   0.00000  Uiso   1.00
C232   C     0.93045   0.17558   0.71419   0.00000  Uiso   1.00
C233   C     0.96325   0.19910   0.61295   0.00000  Uiso   1.00
C234   C     0.99954   0.22131   0.71084   0.00000  Uiso   1.00
C235   C     0.06497   0.26287   0.80420   0.00000  Uiso   1.00
C236   C     0.91348   0.12042   0.70771   0.00000  Uiso   1.00
C237   C     0.93201   0.09757   0.60102   0.00000  Uiso   1.00
C238   C     0.95401   0.07335   0.69347   0.00000  Uiso   1.00
C239   C     0.99306   0.02926   0.77678   0.00000  Uiso   1.00
C240   C     0.82426   0.14918   0.72631   0.00000  Uiso   1.00
C241   C     0.76776   0.15050   0.63525   0.00000  Uiso   1.00
C242   C     0.71464   0.15048   0.74337   0.00000  Uiso   1.00
C243   C     0.61515   0.15104   0.85555   0.00000  Uiso   1.00
C244   C     0.89410   0.14655   0.98913   0.00000  Uiso   1.00
C245   C     0.93376   0.17428   0.90641   0.00000  Uiso   1.00
C246   C     0.97001   0.19646   0.00449   0.00000  Uiso   1.00
C247   C     0.00286   0.22002   0.90341   0.00000  Uiso   1.00
C248   C     0.91680   0.11912   0.89993   0.00000  Uiso   1.00
C249   C     0.93877   0.09493   0.99256   0.00000  Uiso   1.00
C250   C     0.95733   0.07205   0.88604   0.00000  Uiso   1.00
C251   C     0.82757   0.14788   0.91853   0.00000  Uiso   1.00
C252   C     0.77452   0.14786   0.02681   0.00000  Uiso   1.00
C253   C     0.71796   0.14918   0.93594   0.00000  Uiso   1.00
H254   H     0.88542   0.14994   0.48558   0.00000  Uiso   1.00
H255   H     0.96068   0.20009   0.46418   0.00000  Uiso   1.00
H256   H     0.92944   0.09858   0.45227   0.00000  Uiso   1.00
H257   H     0.76522   0.15150   0.48650   0.00000  Uiso   1.00
H258   H     0.04560   0.25512   0.52524   0.00000  Uiso   1.00
H259   H     0.97970   0.04106   0.50011   0.00000  Uiso   1.00
H260   H     0.63341   0.15266   0.57229   0.00000  Uiso   1.00
H261   H     0.89669   0.14554   0.13879   0.00000  Uiso   1.00
H262   H     0.97257   0.19545   0.15325   0.00000  Uiso   1.00
H263   H     0.94133   0.09394   0.14132   0.00000  Uiso   1.00
H264   H     0.77711   0.14686   0.17556   0.00000  Uiso   1.00
H265   H     0.05525   0.25135   0.08451   0.00000  Uiso   1.00
H266   H     0.98935   0.03729   0.05937   0.00000  Uiso   1.00
H267   H     0.64306   0.14889   0.13156   0.00000  Uiso   1.00
O268   O     0.10015   0.28614   0.80259   0.00000  Uiso   1.00
O269   O     0.01369   0.00530   0.76962   0.00000  Uiso   1.00
O270   O     0.55937   0.15172   0.86433   0.00000  Uiso   1.00
N271   N     0.03745   0.24739   0.65488   0.00000  Uiso   1.00
N272   N     0.97585   0.04725   0.63138   0.00000  Uiso   1.00
N273   N     0.65209   0.15158   0.69887   0.00000  Uiso   1.00
N274   N     0.04264   0.24536   0.95582   0.00000  Uiso   1.00
N275   N     0.98104   0.04523   0.93232   0.00000  Uiso   1.00
N276   N     0.65728   0.14955   0.99981   0.00000  Uiso   1.00
C277   C     0.18781   0.33059   0.43313   0.00000  Uiso   1.00
C278   C     0.21575   0.30482   0.34092   0.00000  Uiso   1.00
C279   C     0.23845   0.28056   0.43084   0.00000  Uiso   1.00
C280   C     0.26213   0.25935   0.32183   0.00000  Uiso   1.00
C281   C     0.30540   0.21889   0.20788   0.00000  Uiso   1.00
C282   C     0.22631   0.35977   0.36542   0.00000  Uiso   1.00
C283   C     0.25788   0.38173   0.47594   0.00000  Uiso   1.00
C284   C     0.29044   0.40678   0.38754   0.00000  Uiso   1.00
C285   C     0.35007   0.45164   0.31163   0.00000  Uiso   1.00
C286   C     0.12253   0.33093   0.35078   0.00000  Uiso   1.00
C287   C     0.06684   0.32863   0.44900   0.00000  Uiso   1.00
C288   C     0.01204   0.32941   0.34828   0.00000  Uiso   1.00
C289   C     0.91054   0.32949   0.24964   0.00000  Uiso   1.00
C290   C     0.18950   0.33605   0.07962   0.00000  Uiso   1.00
C291   C     0.21667   0.30778   0.14891   0.00000  Uiso   1.00
C292   C     0.24032   0.28660   0.03973   0.00000  Uiso   1.00
C293   C     0.26305   0.26232   0.12948   0.00000  Uiso   1.00
C294   C     0.22723   0.36274   0.17342   0.00000  Uiso   1.00
C295   C     0.25975   0.38776   0.08483   0.00000  Uiso   1.00
C296   C     0.29137   0.40975   0.19519   0.00000  Uiso   1.00
C297   C     0.12345   0.33389   0.15877   0.00000  Uiso   1.00
C298   C     0.06872   0.33467   0.05789   0.00000  Uiso   1.00
C299   C     0.01296   0.33238   0.15593   0.00000  Uiso   1.00
H300   H     0.18709   0.32829   0.58261   0.00000  Uiso   1.00
H301   H     0.23773   0.27828   0.57944   0.00000  Uiso   1.00
H302   H     0.25715   0.37943   0.62453   0.00000  Uiso   1.00
H303   H     0.06615   0.32634   0.59758   0.00000  Uiso   1.00
H304   H     0.29430   0.22415   0.49125   0.00000  Uiso   1.00
H305   H     0.33523   0.43743   0.58632   0.00000  Uiso   1.00
H306   H     0.93247   0.32549   0.52951   0.00000  Uiso   1.00
H307   H     0.19022   0.33836   0.93013   0.00000  Uiso   1.00
H308   H     0.24103   0.28890   0.89115   0.00000  Uiso   1.00
H309   H     0.26045   0.39005   0.93625   0.00000  Uiso   1.00
H310   H     0.06945   0.33696   0.90930   0.00000  Uiso   1.00
H311   H     0.29698   0.23277   0.93261   0.00000  Uiso   1.00
H312   H     0.33791   0.44606   0.02769   0.00000  Uiso   1.00
H313   H     0.93515   0.33411   0.97087   0.00000  Uiso   1.00
O314   O     0.32902   0.19575   0.19807   0.00000  Uiso   1.00
O315   O     0.38272   0.47557   0.32280   0.00000  Uiso   1.00
O316   O     0.85430   0.32871   0.24827   0.00000  Uiso   1.00
N317   N     0.28794   0.23296   0.36512   0.00000  Uiso   1.00
N318   N     0.32623   0.43237   0.45401   0.00000  Uiso   1.00
N319   N     0.94967   0.32772   0.40090   0.00000  Uiso   1.00
N320   N     0.28938   0.23760   0.06452   0.00000  Uiso   1.00
N321   N     0.32767   0.43701   0.15341   0.00000  Uiso   1.00
N322   N     0.95111   0.33236   0.10030   0.00000  Uiso   1.00
C323   C     0.87495   0.86816   0.54375   0.00000  Uiso   1.00
C324   C     0.91101   0.84315   0.47453   0.00000  Uiso   1.00
C325   C     0.94364   0.82439   0.58331   0.00000  Uiso   1.00
C326   C     0.97358   0.80292   0.49373   0.00000  Uiso   1.00
C327   C     0.03001   0.76450   0.41537   0.00000  Uiso   1.00
C328   C     0.90238   0.89714   0.44297   0.00000  Uiso   1.00
C329   C     0.92774   0.92378   0.52522   0.00000  Uiso   1.00
C330   C     0.95040   0.94776   0.40906   0.00000  Uiso   1.00
C331   C     0.99338   0.99317   0.28171   0.00000  Uiso   1.00
C332   C     0.80813   0.86091   0.47217   0.00000  Uiso   1.00
C333   C     0.75424   0.85709   0.57896   0.00000  Uiso   1.00
C334   C     0.69755   0.85057   0.48738   0.00000  Uiso   1.00
C335   C     0.59419   0.83972   0.40537   0.00000  Uiso   1.00
C336   C     0.87009   0.86340   0.19124   0.00000  Uiso   1.00
C337   C     0.90837   0.84057   0.28306   0.00000  Uiso   1.00
C338   C     0.93827   0.81912   0.19330   0.00000  Uiso   1.00
C339   C     0.97094   0.80033   0.30192   0.00000  Uiso   1.00
C340   C     0.89974   0.89456   0.25151   0.00000  Uiso   1.00
C341   C     0.92236   0.91851   0.13521   0.00000  Uiso   1.00
C342   C     0.94776   0.94517   0.21725   0.00000  Uiso   1.00
C343   C     0.80549   0.85833   0.28070   0.00000  Uiso   1.00
C344   C     0.74887   0.85182   0.18895   0.00000  Uiso   1.00
C345   C     0.69490   0.84798   0.29557   0.00000  Uiso   1.00
H346   H     0.87700   0.87017   0.69281   0.00000  Uiso   1.00
H347   H     0.94568   0.82640   0.73148   0.00000  Uiso   1.00
H348   H     0.92977   0.92577   0.67339   0.00000  Uiso   1.00
H349   H     0.75630   0.85909   0.72712   0.00000  Uiso   1.00
H350   H     0.02068   0.77673   0.68990   0.00000  Uiso   1.00
H351   H     0.98711   0.98627   0.56742   0.00000  Uiso   1.00
H352   H     0.62131   0.84566   0.68072   0.00000  Uiso   1.00
H353   H     0.86803   0.86139   0.04217   0.00000  Uiso   1.00
H354   H     0.93622   0.81713   0.04513   0.00000  Uiso   1.00
H355   H     0.92031   0.91650   0.98705   0.00000  Uiso   1.00
H356   H     0.74684   0.84982   0.04078   0.00000  Uiso   1.00
H357   H     0.01300   0.76921   0.13283   0.00000  Uiso   1.00
H358   H     0.97943   0.97875   0.01036   0.00000  Uiso   1.00
H359   H     0.61364   0.83814   0.12366   0.00000  Uiso   1.00
O360   O     0.06187   0.74402   0.42504   0.00000  Uiso   1.00
O361   O     0.01783   0.01893   0.26436   0.00000  Uiso   1.00
O362   O     0.53791   0.83445   0.41302   0.00000  Uiso   1.00
N363   N     0.00950   0.78103   0.55839   0.00000  Uiso   1.00
N364   N     0.97813   0.97694   0.44388   0.00000  Uiso   1.00
N365   N     0.63614   0.84549   0.54981   0.00000  Uiso   1.00
N366   N     0.00537   0.77699   0.25864   0.00000  Uiso   1.00
N367   N     0.97400   0.97289   0.14413   0.00000  Uiso   1.00
N368   N     0.63201   0.84144   0.25006   0.00000  Uiso   1.00
