data_job_01587
_audit_creation_date              2018-12-19
_audit_creation_method            'Materials Studio'
_symmetry_space_group_name_H-M    'P1'
_symmetry_Int_Tables_number       1
_symmetry_cell_setting            triclinic
loop_
_symmetry_equiv_pos_as_xyz
  x,y,z
_cell_length_a                    21.8543
_cell_length_b                    21.8543
_cell_length_c                    12.1567
_cell_angle_alpha                 90.0000
_cell_angle_beta                  90.0000
_cell_angle_gamma                 120.0000
loop_
_atom_site_label
_atom_site_type_symbol
_atom_site_fract_x
_atom_site_fract_y
_atom_site_fract_z
_atom_site_U_iso_or_equiv
_atom_site_adp_type
_atom_site_occupancy
C1     C     0.51291   0.29522   0.94799   0.00000  Uiso   1.00
C2     C     0.54998   0.25958   0.00201   0.00000  Uiso   1.00
C3     C     0.62011   0.27817   0.98676   0.00000  Uiso   1.00
C4     C     0.64401   0.23905   0.04359   0.00000  Uiso   1.00
C5     C     0.70836   0.19215   0.11685   0.00000  Uiso   1.00
C6     C     0.44911   0.23687   0.88793   0.00000  Uiso   1.00
C7     C     0.43442   0.23637   0.77675   0.00000  Uiso   1.00
C8     C     0.37341   0.17814   0.73756   0.00000  Uiso   1.00
C9     C     0.28113   0.09601   0.63371   0.00000  Uiso   1.00
C10    C     0.48326   0.31896   0.04179   0.00000  Uiso   1.00
C11    C     0.49727   0.38747   0.05998   0.00000  Uiso   1.00
C12    C     0.46500   0.39835   0.15032   0.00000  Uiso   1.00
C13    C     0.42574   0.44367   0.28537   0.00000  Uiso   1.00
C14    C     0.43064   0.19271   0.07606   0.00000  Uiso   1.00
C15    C     0.50529   0.20390   0.07157   0.00000  Uiso   1.00
C16    C     0.52910   0.16474   0.12845   0.00000  Uiso   1.00
C17    C     0.59925   0.18327   0.11329   0.00000  Uiso   1.00
C18    C     0.40443   0.18119   0.95748   0.00000  Uiso   1.00
C19    C     0.34341   0.12295   0.91845   0.00000  Uiso   1.00
C20    C     0.32864   0.12236   0.80724   0.00000  Uiso   1.00
C21    C     0.43858   0.26328   0.11136   0.00000  Uiso   1.00
C22    C     0.40627   0.27405   0.20168   0.00000  Uiso   1.00
C23    C     0.42023   0.34256   0.22000   0.00000  Uiso   1.00
H24    H     0.54769   0.33857   0.89383   0.00000  Uiso   1.00
H25    H     0.65467   0.32126   0.93291   0.00000  Uiso   1.00
H26    H     0.46901   0.27947   0.72295   0.00000  Uiso   1.00
H27    H     0.53185   0.43055   0.00613   0.00000  Uiso   1.00
H28    H     0.75356   0.27749   0.00688   0.00000  Uiso   1.00
H29    H     0.36208   0.18939   0.56417   0.00000  Uiso   1.00
H30    H     0.49460   0.50797   0.16132   0.00000  Uiso   1.00
H31    H     0.39585   0.14935   0.13022   0.00000  Uiso   1.00
H32    H     0.49451   0.12165   0.18228   0.00000  Uiso   1.00
H33    H     0.30885   0.07987   0.97230   0.00000  Uiso   1.00
H34    H     0.37169   0.23095   0.25549   0.00000  Uiso   1.00
H35    H     0.62357   0.11548   0.20927   0.00000  Uiso   1.00
H36    H     0.23208   0.02739   0.76655   0.00000  Uiso   1.00
H37    H     0.36460   0.34596   0.36371   0.00000  Uiso   1.00
O38    O     0.75619   0.18166   0.13803   0.00000  Uiso   1.00
O39    O     0.24257   0.06609   0.55721   0.00000  Uiso   1.00
O40    O     0.41644   0.48405   0.34065   0.00000  Uiso   1.00
N41    N     0.70943   0.24317   0.04739   0.00000  Uiso   1.00
N42    N     0.34342   0.16080   0.63347   0.00000  Uiso   1.00
N43    N     0.46730   0.45864   0.19174   0.00000  Uiso   1.00
N44    N     0.63949   0.15600   0.15629   0.00000  Uiso   1.00
N45    N     0.27348   0.07363   0.74238   0.00000  Uiso   1.00
N46    N     0.39736   0.37146   0.30064   0.00000  Uiso   1.00
C47    C     0.70478   0.21768   0.61466   0.00000  Uiso   1.00
C48    C     0.74042   0.29040   0.66868   0.00000  Uiso   1.00
C49    C     0.72183   0.34194   0.65343   0.00000  Uiso   1.00
C50    C     0.76095   0.40496   0.71026   0.00000  Uiso   1.00
C51    C     0.80785   0.51621   0.78352   0.00000  Uiso   1.00
C52    C     0.76313   0.21224   0.55460   0.00000  Uiso   1.00
C53    C     0.76363   0.19805   0.44342   0.00000  Uiso   1.00
C54    C     0.82186   0.19527   0.40423   0.00000  Uiso   1.00
C55    C     0.90399   0.18511   0.30038   0.00000  Uiso   1.00
C56    C     0.68104   0.16430   0.70846   0.00000  Uiso   1.00
C57    C     0.61253   0.10980   0.72665   0.00000  Uiso   1.00
C58    C     0.60165   0.06665   0.81699   0.00000  Uiso   1.00
C59    C     0.55633   0.98207   0.95204   0.00000  Uiso   1.00
C60    C     0.80729   0.23794   0.74273   0.00000  Uiso   1.00
C61    C     0.79610   0.30140   0.73824   0.00000  Uiso   1.00
C62    C     0.83526   0.36435   0.79512   0.00000  Uiso   1.00
C63    C     0.81673   0.41598   0.77995   0.00000  Uiso   1.00
C64    C     0.81881   0.22324   0.62415   0.00000  Uiso   1.00
C65    C     0.87705   0.22046   0.58511   0.00000  Uiso   1.00
C66    C     0.87764   0.20629   0.47391   0.00000  Uiso   1.00
C67    C     0.73672   0.17530   0.77803   0.00000  Uiso   1.00
C68    C     0.72595   0.13222   0.86834   0.00000  Uiso   1.00
C69    C     0.65744   0.07767   0.88667   0.00000  Uiso   1.00
H70    H     0.66143   0.20912   0.56050   0.00000  Uiso   1.00
H71    H     0.67874   0.33341   0.59958   0.00000  Uiso   1.00
H72    H     0.72053   0.18954   0.38961   0.00000  Uiso   1.00
H73    H     0.56945   0.10131   0.67280   0.00000  Uiso   1.00
H74    H     0.72251   0.47607   0.67355   0.00000  Uiso   1.00
H75    H     0.81061   0.17268   0.23083   0.00000  Uiso   1.00
H76    H     0.49203   0.98663   0.82798   0.00000  Uiso   1.00
H77    H     0.85065   0.24650   0.79689   0.00000  Uiso   1.00
H78    H     0.87835   0.37285   0.84894   0.00000  Uiso   1.00
H79    H     0.92013   0.22898   0.63897   0.00000  Uiso   1.00
H80    H     0.76905   0.14075   0.92216   0.00000  Uiso   1.00
H81    H     0.88452   0.50809   0.87594   0.00000  Uiso   1.00
H82    H     0.97261   0.20469   0.43322   0.00000  Uiso   1.00
H83    H     0.65404   0.01864   0.03037   0.00000  Uiso   1.00
O84    O     0.81834   0.57453   0.80469   0.00000  Uiso   1.00
O85    O     0.93391   0.17648   0.22387   0.00000  Uiso   1.00
O86    O     0.51595   0.93239   0.00732   0.00000  Uiso   1.00
N87    N     0.75683   0.46626   0.71406   0.00000  Uiso   1.00
N88    N     0.83920   0.18262   0.30014   0.00000  Uiso   1.00
N89    N     0.54136   0.00867   0.85841   0.00000  Uiso   1.00
N90    N     0.84400   0.48349   0.82296   0.00000  Uiso   1.00
N91    N     0.92637   0.19985   0.40904   0.00000  Uiso   1.00
N92    N     0.62854   0.02589   0.96731   0.00000  Uiso   1.00
C93    C     0.78232   0.48709   0.28133   0.00000  Uiso   1.00
C94    C     0.70960   0.45002   0.33535   0.00000  Uiso   1.00
C95    C     0.65806   0.37989   0.32009   0.00000  Uiso   1.00
C96    C     0.59504   0.35599   0.37693   0.00000  Uiso   1.00
C97    C     0.48379   0.29164   0.45018   0.00000  Uiso   1.00
C98    C     0.78776   0.55089   0.22126   0.00000  Uiso   1.00
C99    C     0.80195   0.56558   0.11009   0.00000  Uiso   1.00
C100   C     0.80473   0.62659   0.07089   0.00000  Uiso   1.00
C101   C     0.81489   0.71887   0.96704   0.00000  Uiso   1.00
C102   C     0.83570   0.51674   0.37513   0.00000  Uiso   1.00
C103   C     0.89020   0.50273   0.39331   0.00000  Uiso   1.00
C104   C     0.93335   0.53500   0.48365   0.00000  Uiso   1.00
C105   C     0.01793   0.57426   0.61870   0.00000  Uiso   1.00
C106   C     0.76206   0.56936   0.40940   0.00000  Uiso   1.00
C107   C     0.69860   0.49471   0.40491   0.00000  Uiso   1.00
C108   C     0.63565   0.47090   0.46179   0.00000  Uiso   1.00
C109   C     0.58402   0.40075   0.44662   0.00000  Uiso   1.00
C110   C     0.77676   0.59557   0.29082   0.00000  Uiso   1.00
C111   C     0.77954   0.65659   0.25178   0.00000  Uiso   1.00
C112   C     0.79371   0.67136   0.14058   0.00000  Uiso   1.00
C113   C     0.82470   0.56142   0.44469   0.00000  Uiso   1.00
C114   C     0.86778   0.59373   0.53501   0.00000  Uiso   1.00
C115   C     0.92233   0.57977   0.55334   0.00000  Uiso   1.00
H116   H     0.79088   0.45231   0.22717   0.00000  Uiso   1.00
H117   H     0.66659   0.34533   0.26624   0.00000  Uiso   1.00
H118   H     0.81046   0.53099   0.05628   0.00000  Uiso   1.00
H119   H     0.89869   0.46815   0.33947   0.00000  Uiso   1.00
H120   H     0.52393   0.24644   0.34022   0.00000  Uiso   1.00
H121   H     0.82732   0.63792   0.89750   0.00000  Uiso   1.00
H122   H     0.01337   0.50540   0.49465   0.00000  Uiso   1.00
H123   H     0.75350   0.60415   0.46355   0.00000  Uiso   1.00
H124   H     0.62715   0.50549   0.51561   0.00000  Uiso   1.00
H125   H     0.77102   0.69115   0.30564   0.00000  Uiso   1.00
H126   H     0.85925   0.62831   0.58882   0.00000  Uiso   1.00
H127   H     0.49191   0.37643   0.54260   0.00000  Uiso   1.00
H128   H     0.79531   0.76792   0.09989   0.00000  Uiso   1.00
H129   H     0.98136   0.63540   0.69704   0.00000  Uiso   1.00
O130   O     0.42547   0.24381   0.47136   0.00000  Uiso   1.00
O131   O     0.82352   0.75743   0.89054   0.00000  Uiso   1.00
O132   O     0.06761   0.58356   0.67399   0.00000  Uiso   1.00
N133   N     0.53374   0.29057   0.38072   0.00000  Uiso   1.00
N134   N     0.81738   0.65658   0.96680   0.00000  Uiso   1.00
N135   N     0.99133   0.53270   0.52507   0.00000  Uiso   1.00
N136   N     0.51651   0.36051   0.48963   0.00000  Uiso   1.00
N137   N     0.80015   0.72652   0.07571   0.00000  Uiso   1.00
N138   N     0.97411   0.60264   0.63398   0.00000  Uiso   1.00
C139   C     0.29522   0.51291   0.05201   0.00000  Uiso   1.00
C140   C     0.25958   0.54998   0.99799   0.00000  Uiso   1.00
C141   C     0.27817   0.62011   0.01324   0.00000  Uiso   1.00
C142   C     0.23905   0.64401   0.95641   0.00000  Uiso   1.00
C143   C     0.19215   0.70836   0.88315   0.00000  Uiso   1.00
C144   C     0.23687   0.44911   0.11207   0.00000  Uiso   1.00
C145   C     0.23637   0.43442   0.22325   0.00000  Uiso   1.00
C146   C     0.17814   0.37341   0.26244   0.00000  Uiso   1.00
C147   C     0.09601   0.28113   0.36629   0.00000  Uiso   1.00
C148   C     0.31896   0.48326   0.95821   0.00000  Uiso   1.00
C149   C     0.38747   0.49727   0.94002   0.00000  Uiso   1.00
C150   C     0.39835   0.46500   0.84968   0.00000  Uiso   1.00
C151   C     0.44367   0.42574   0.71463   0.00000  Uiso   1.00
C152   C     0.19271   0.43064   0.92394   0.00000  Uiso   1.00
C153   C     0.20390   0.50529   0.92843   0.00000  Uiso   1.00
C154   C     0.16474   0.52910   0.87155   0.00000  Uiso   1.00
C155   C     0.18327   0.59925   0.88671   0.00000  Uiso   1.00
C156   C     0.18119   0.40443   0.04252   0.00000  Uiso   1.00
C157   C     0.12295   0.34341   0.08155   0.00000  Uiso   1.00
C158   C     0.12236   0.32864   0.19276   0.00000  Uiso   1.00
C159   C     0.26328   0.43858   0.88864   0.00000  Uiso   1.00
C160   C     0.27405   0.40627   0.79832   0.00000  Uiso   1.00
C161   C     0.34256   0.42023   0.78000   0.00000  Uiso   1.00
H162   H     0.33857   0.54769   0.10617   0.00000  Uiso   1.00
H163   H     0.32126   0.65467   0.06709   0.00000  Uiso   1.00
H164   H     0.27947   0.46901   0.27705   0.00000  Uiso   1.00
H165   H     0.43055   0.53185   0.99387   0.00000  Uiso   1.00
H166   H     0.27749   0.75356   0.99312   0.00000  Uiso   1.00
H167   H     0.18939   0.36208   0.43583   0.00000  Uiso   1.00
H168   H     0.50797   0.49460   0.83868   0.00000  Uiso   1.00
H169   H     0.14935   0.39585   0.86978   0.00000  Uiso   1.00
H170   H     0.12165   0.49451   0.81772   0.00000  Uiso   1.00
H171   H     0.07987   0.30885   0.02770   0.00000  Uiso   1.00
H172   H     0.23095   0.37169   0.74451   0.00000  Uiso   1.00
H173   H     0.11548   0.62357   0.79073   0.00000  Uiso   1.00
H174   H     0.02739   0.23208   0.23345   0.00000  Uiso   1.00
H175   H     0.34596   0.36460   0.63629   0.00000  Uiso   1.00
O176   O     0.18166   0.75619   0.86197   0.00000  Uiso   1.00
O177   O     0.06609   0.24257   0.44279   0.00000  Uiso   1.00
O178   O     0.48405   0.41644   0.65935   0.00000  Uiso   1.00
N179   N     0.24317   0.70943   0.95261   0.00000  Uiso   1.00
N180   N     0.16080   0.34342   0.36653   0.00000  Uiso   1.00
N181   N     0.45864   0.46730   0.80826   0.00000  Uiso   1.00
N182   N     0.15600   0.63949   0.84371   0.00000  Uiso   1.00
N183   N     0.07363   0.27348   0.25762   0.00000  Uiso   1.00
N184   N     0.37146   0.39736   0.69936   0.00000  Uiso   1.00
C185   C     0.21768   0.70478   0.38534   0.00000  Uiso   1.00
C186   C     0.29040   0.74042   0.33132   0.00000  Uiso   1.00
C187   C     0.34194   0.72183   0.34657   0.00000  Uiso   1.00
C188   C     0.40496   0.76095   0.28974   0.00000  Uiso   1.00
C189   C     0.51621   0.80785   0.21648   0.00000  Uiso   1.00
C190   C     0.21224   0.76313   0.44540   0.00000  Uiso   1.00
C191   C     0.19805   0.76363   0.55658   0.00000  Uiso   1.00
C192   C     0.19527   0.82186   0.59577   0.00000  Uiso   1.00
C193   C     0.18511   0.90399   0.69962   0.00000  Uiso   1.00
C194   C     0.16430   0.68104   0.29154   0.00000  Uiso   1.00
C195   C     0.10980   0.61253   0.27335   0.00000  Uiso   1.00
C196   C     0.06665   0.60165   0.18301   0.00000  Uiso   1.00
C197   C     0.98207   0.55633   0.04796   0.00000  Uiso   1.00
C198   C     0.23794   0.80729   0.25727   0.00000  Uiso   1.00
C199   C     0.30140   0.79610   0.26176   0.00000  Uiso   1.00
C200   C     0.36435   0.83526   0.20488   0.00000  Uiso   1.00
C201   C     0.41598   0.81673   0.22005   0.00000  Uiso   1.00
C202   C     0.22324   0.81881   0.37585   0.00000  Uiso   1.00
C203   C     0.22046   0.87705   0.41489   0.00000  Uiso   1.00
C204   C     0.20629   0.87764   0.52609   0.00000  Uiso   1.00
C205   C     0.17530   0.73672   0.22197   0.00000  Uiso   1.00
C206   C     0.13222   0.72595   0.13166   0.00000  Uiso   1.00
C207   C     0.07767   0.65744   0.11333   0.00000  Uiso   1.00
H208   H     0.20912   0.66143   0.43950   0.00000  Uiso   1.00
H209   H     0.33341   0.67874   0.40042   0.00000  Uiso   1.00
H210   H     0.18954   0.72053   0.61039   0.00000  Uiso   1.00
H211   H     0.10131   0.56945   0.32720   0.00000  Uiso   1.00
H212   H     0.47607   0.72251   0.32645   0.00000  Uiso   1.00
H213   H     0.17268   0.81061   0.76917   0.00000  Uiso   1.00
H214   H     0.98663   0.49203   0.17202   0.00000  Uiso   1.00
H215   H     0.24650   0.85065   0.20311   0.00000  Uiso   1.00
H216   H     0.37285   0.87835   0.15106   0.00000  Uiso   1.00
H217   H     0.22898   0.92013   0.36103   0.00000  Uiso   1.00
H218   H     0.14075   0.76905   0.07784   0.00000  Uiso   1.00
H219   H     0.50809   0.88452   0.12406   0.00000  Uiso   1.00
H220   H     0.20469   0.97261   0.56678   0.00000  Uiso   1.00
H221   H     0.01864   0.65404   0.96963   0.00000  Uiso   1.00
O222   O     0.57453   0.81834   0.19531   0.00000  Uiso   1.00
O223   O     0.17648   0.93391   0.77613   0.00000  Uiso   1.00
O224   O     0.93239   0.51595   0.99268   0.00000  Uiso   1.00
N225   N     0.46626   0.75683   0.28594   0.00000  Uiso   1.00
N226   N     0.18262   0.83920   0.69986   0.00000  Uiso   1.00
N227   N     0.00867   0.54136   0.14159   0.00000  Uiso   1.00
N228   N     0.48349   0.84400   0.17704   0.00000  Uiso   1.00
N229   N     0.19985   0.92637   0.59096   0.00000  Uiso   1.00
N230   N     0.02589   0.62854   0.03269   0.00000  Uiso   1.00
C231   C     0.48709   0.78232   0.71867   0.00000  Uiso   1.00
C232   C     0.45002   0.70960   0.66465   0.00000  Uiso   1.00
C233   C     0.37989   0.65806   0.67991   0.00000  Uiso   1.00
C234   C     0.35599   0.59504   0.62307   0.00000  Uiso   1.00
C235   C     0.29164   0.48379   0.54982   0.00000  Uiso   1.00
C236   C     0.55089   0.78776   0.77874   0.00000  Uiso   1.00
C237   C     0.56558   0.80195   0.88991   0.00000  Uiso   1.00
C238   C     0.62659   0.80473   0.92911   0.00000  Uiso   1.00
C239   C     0.71887   0.81489   0.03296   0.00000  Uiso   1.00
C240   C     0.51674   0.83570   0.62487   0.00000  Uiso   1.00
C241   C     0.50273   0.89020   0.60669   0.00000  Uiso   1.00
C242   C     0.53500   0.93335   0.51635   0.00000  Uiso   1.00
C243   C     0.57426   0.01793   0.38130   0.00000  Uiso   1.00
C244   C     0.56936   0.76206   0.59060   0.00000  Uiso   1.00
C245   C     0.49471   0.69860   0.59509   0.00000  Uiso   1.00
C246   C     0.47090   0.63565   0.53821   0.00000  Uiso   1.00
C247   C     0.40075   0.58402   0.55338   0.00000  Uiso   1.00
C248   C     0.59557   0.77676   0.70918   0.00000  Uiso   1.00
C249   C     0.65659   0.77954   0.74822   0.00000  Uiso   1.00
C250   C     0.67136   0.79371   0.85942   0.00000  Uiso   1.00
C251   C     0.56142   0.82470   0.55531   0.00000  Uiso   1.00
C252   C     0.59373   0.86778   0.46499   0.00000  Uiso   1.00
C253   C     0.57977   0.92233   0.44666   0.00000  Uiso   1.00
H254   H     0.45231   0.79088   0.77283   0.00000  Uiso   1.00
H255   H     0.34533   0.66659   0.73376   0.00000  Uiso   1.00
H256   H     0.53099   0.81046   0.94372   0.00000  Uiso   1.00
H257   H     0.46815   0.89869   0.66053   0.00000  Uiso   1.00
H258   H     0.24644   0.52393   0.65978   0.00000  Uiso   1.00
H259   H     0.63792   0.82732   0.10250   0.00000  Uiso   1.00
H260   H     0.50540   0.01337   0.50535   0.00000  Uiso   1.00
H261   H     0.60415   0.75350   0.53645   0.00000  Uiso   1.00
H262   H     0.50549   0.62715   0.48439   0.00000  Uiso   1.00
H263   H     0.69115   0.77102   0.69436   0.00000  Uiso   1.00
H264   H     0.62831   0.85925   0.41118   0.00000  Uiso   1.00
H265   H     0.37643   0.49191   0.45740   0.00000  Uiso   1.00
H266   H     0.76792   0.79531   0.90011   0.00000  Uiso   1.00
H267   H     0.63540   0.98136   0.30296   0.00000  Uiso   1.00
O268   O     0.24381   0.42547   0.52864   0.00000  Uiso   1.00
O269   O     0.75743   0.82352   0.10946   0.00000  Uiso   1.00
O270   O     0.58356   0.06761   0.32601   0.00000  Uiso   1.00
N271   N     0.29057   0.53374   0.61928   0.00000  Uiso   1.00
N272   N     0.65658   0.81738   0.03320   0.00000  Uiso   1.00
N273   N     0.53270   0.99133   0.47493   0.00000  Uiso   1.00
N274   N     0.36051   0.51651   0.51037   0.00000  Uiso   1.00
N275   N     0.72652   0.80015   0.92429   0.00000  Uiso   1.00
N276   N     0.60264   0.97411   0.36602   0.00000  Uiso   1.00
