data_job_03596
_audit_creation_date              2018-12-19
_audit_creation_method            'Materials Studio'
_symmetry_space_group_name_H-M    'P1'
_symmetry_Int_Tables_number       1
_symmetry_cell_setting            triclinic
loop_
_symmetry_equiv_pos_as_xyz
  x,y,z
_cell_length_a                    22.9310
_cell_length_b                    22.9310
_cell_length_c                    22.9310
_cell_angle_alpha                 90.0000
_cell_angle_beta                  90.0000
_cell_angle_gamma                 90.0000
loop_
_atom_site_label
_atom_site_type_symbol
_atom_site_fract_x
_atom_site_fract_y
_atom_site_fract_z
_atom_site_U_iso_or_equiv
_atom_site_adp_type
_atom_site_occupancy
C1     C     0.69544   0.60407   0.96775   0.00000  Uiso   1.00
C2     C     0.70207   0.53797   0.97076   0.00000  Uiso   1.00
C3     C     0.70894   0.50094   0.92339   0.00000  Uiso   1.00
C4     C     0.71427   0.44181   0.93528   0.00000  Uiso   1.00
C5     C     0.72476   0.34241   0.93126   0.00000  Uiso   1.00
C6     C     0.63846   0.61825   0.99895   0.00000  Uiso   1.00
C7     C     0.59184   0.64874   0.97527   0.00000  Uiso   1.00
C8     C     0.54361   0.65720   0.01090   0.00000  Uiso   1.00
C9     C     0.45535   0.68248   0.05064   0.00000  Uiso   1.00
C10    C     0.74392   0.62915   0.00574   0.00000  Uiso   1.00
C11    C     0.78596   0.66881   0.98778   0.00000  Uiso   1.00
C12    C     0.82652   0.68645   0.02913   0.00000  Uiso   1.00
C13    C     0.90201   0.72865   0.07942   0.00000  Uiso   1.00
C14    C     0.69270   0.56491   0.07311   0.00000  Uiso   1.00
C15    C     0.70058   0.51670   0.02799   0.00000  Uiso   1.00
C16    C     0.70591   0.45761   0.03996   0.00000  Uiso   1.00
C17    C     0.71278   0.42050   0.99261   0.00000  Uiso   1.00
C18    C     0.63696   0.59699   0.05618   0.00000  Uiso   1.00
C19    C     0.58880   0.60541   0.09184   0.00000  Uiso   1.00
C20    C     0.54212   0.63589   0.06823   0.00000  Uiso   1.00
C21    C     0.74243   0.60788   0.06297   0.00000  Uiso   1.00
C22    C     0.78293   0.62548   0.10435   0.00000  Uiso   1.00
C23    C     0.82503   0.66515   0.08646   0.00000  Uiso   1.00
H24    H     0.69660   0.62063   0.92320   0.00000  Uiso   1.00
H25    H     0.71009   0.51741   0.87911   0.00000  Uiso   1.00
H26    H     0.59300   0.66519   0.93099   0.00000  Uiso   1.00
H27    H     0.78710   0.68525   0.94349   0.00000  Uiso   1.00
H28    H     0.72436   0.39360   0.85547   0.00000  Uiso   1.00
H29    H     0.47749   0.70522   0.96486   0.00000  Uiso   1.00
H30    H     0.88678   0.74752   0.99123   0.00000  Uiso   1.00
H31    H     0.69154   0.54835   0.11767   0.00000  Uiso   1.00
H32    H     0.70475   0.44117   0.08425   0.00000  Uiso   1.00
H33    H     0.58767   0.58895   0.13613   0.00000  Uiso   1.00
H34    H     0.78176   0.60901   0.14864   0.00000  Uiso   1.00
H35    H     0.72002   0.33172   0.02197   0.00000  Uiso   1.00
H36    H     0.47316   0.64334   0.13136   0.00000  Uiso   1.00
H37    H     0.88245   0.68564   0.15774   0.00000  Uiso   1.00
O38    O     0.73095   0.29345   0.91322   0.00000  Uiso   1.00
O39    O     0.40708   0.70229   0.05675   0.00000  Uiso   1.00
O40    O     0.94406   0.75779   0.09135   0.00000  Uiso   1.00
N41    N     0.72154   0.39375   0.89924   0.00000  Uiso   1.00
N42    N     0.49073   0.68508   0.00151   0.00000  Uiso   1.00
N43    N     0.87337   0.72465   0.02617   0.00000  Uiso   1.00
N44    N     0.71921   0.36045   0.98883   0.00000  Uiso   1.00
N45    N     0.48840   0.65178   0.09111   0.00000  Uiso   1.00
N46    N     0.87104   0.69135   0.11577   0.00000  Uiso   1.00
C47    C     0.80456   0.39593   0.46775   0.00000  Uiso   1.00
C48    C     0.79793   0.46203   0.47076   0.00000  Uiso   1.00
C49    C     0.79106   0.49906   0.42339   0.00000  Uiso   1.00
C50    C     0.78573   0.55819   0.43528   0.00000  Uiso   1.00
C51    C     0.77524   0.65759   0.43126   0.00000  Uiso   1.00
C52    C     0.86154   0.38175   0.49895   0.00000  Uiso   1.00
C53    C     0.90816   0.35126   0.47527   0.00000  Uiso   1.00
C54    C     0.95639   0.34280   0.51090   0.00000  Uiso   1.00
C55    C     0.04465   0.31752   0.55064   0.00000  Uiso   1.00
C56    C     0.75608   0.37085   0.50574   0.00000  Uiso   1.00
C57    C     0.71404   0.33119   0.48778   0.00000  Uiso   1.00
C58    C     0.67348   0.31355   0.52913   0.00000  Uiso   1.00
C59    C     0.59799   0.27135   0.57942   0.00000  Uiso   1.00
C60    C     0.80730   0.43509   0.57311   0.00000  Uiso   1.00
C61    C     0.79942   0.48330   0.52799   0.00000  Uiso   1.00
C62    C     0.79409   0.54239   0.53996   0.00000  Uiso   1.00
C63    C     0.78722   0.57950   0.49261   0.00000  Uiso   1.00
C64    C     0.86304   0.40301   0.55618   0.00000  Uiso   1.00
C65    C     0.91120   0.39459   0.59184   0.00000  Uiso   1.00
C66    C     0.95788   0.36411   0.56823   0.00000  Uiso   1.00
C67    C     0.75757   0.39212   0.56297   0.00000  Uiso   1.00
C68    C     0.71707   0.37452   0.60435   0.00000  Uiso   1.00
C69    C     0.67497   0.33485   0.58646   0.00000  Uiso   1.00
H70    H     0.80340   0.37937   0.42320   0.00000  Uiso   1.00
H71    H     0.78991   0.48259   0.37911   0.00000  Uiso   1.00
H72    H     0.90700   0.33481   0.43099   0.00000  Uiso   1.00
H73    H     0.71290   0.31475   0.44349   0.00000  Uiso   1.00
H74    H     0.77564   0.60640   0.35547   0.00000  Uiso   1.00
H75    H     0.02251   0.29478   0.46486   0.00000  Uiso   1.00
H76    H     0.61322   0.25248   0.49123   0.00000  Uiso   1.00
H77    H     0.80846   0.45165   0.61767   0.00000  Uiso   1.00
H78    H     0.79525   0.55883   0.58425   0.00000  Uiso   1.00
H79    H     0.91233   0.41105   0.63613   0.00000  Uiso   1.00
H80    H     0.71824   0.39099   0.64864   0.00000  Uiso   1.00
H81    H     0.77998   0.66828   0.52197   0.00000  Uiso   1.00
H82    H     0.02684   0.35666   0.63136   0.00000  Uiso   1.00
H83    H     0.61755   0.31436   0.65774   0.00000  Uiso   1.00
O84    O     0.76905   0.70655   0.41322   0.00000  Uiso   1.00
O85    O     0.09292   0.29771   0.55675   0.00000  Uiso   1.00
O86    O     0.55594   0.24221   0.59135   0.00000  Uiso   1.00
N87    N     0.77846   0.60625   0.39924   0.00000  Uiso   1.00
N88    N     0.00927   0.31492   0.50151   0.00000  Uiso   1.00
N89    N     0.62663   0.27535   0.52617   0.00000  Uiso   1.00
N90    N     0.78079   0.63955   0.48883   0.00000  Uiso   1.00
N91    N     0.01160   0.34822   0.59111   0.00000  Uiso   1.00
N92    N     0.62896   0.30865   0.61577   0.00000  Uiso   1.00
C93    C     0.30456   0.10407   0.53225   0.00000  Uiso   1.00
C94    C     0.29793   0.03797   0.52924   0.00000  Uiso   1.00
C95    C     0.29106   0.00094   0.57661   0.00000  Uiso   1.00
C96    C     0.28573   0.94181   0.56472   0.00000  Uiso   1.00
C97    C     0.27524   0.84241   0.56874   0.00000  Uiso   1.00
C98    C     0.36154   0.11825   0.50105   0.00000  Uiso   1.00
C99    C     0.40816   0.14874   0.52473   0.00000  Uiso   1.00
C100   C     0.45639   0.15720   0.48910   0.00000  Uiso   1.00
C101   C     0.54465   0.18248   0.44936   0.00000  Uiso   1.00
C102   C     0.25608   0.12915   0.49426   0.00000  Uiso   1.00
C103   C     0.21404   0.16881   0.51222   0.00000  Uiso   1.00
C104   C     0.17348   0.18645   0.47087   0.00000  Uiso   1.00
C105   C     0.09799   0.22865   0.42058   0.00000  Uiso   1.00
C106   C     0.30730   0.06491   0.42689   0.00000  Uiso   1.00
C107   C     0.29942   0.01670   0.47201   0.00000  Uiso   1.00
C108   C     0.29409   0.95761   0.46004   0.00000  Uiso   1.00
C109   C     0.28722   0.92050   0.50739   0.00000  Uiso   1.00
C110   C     0.36304   0.09699   0.44382   0.00000  Uiso   1.00
C111   C     0.41120   0.10541   0.40816   0.00000  Uiso   1.00
C112   C     0.45788   0.13589   0.43177   0.00000  Uiso   1.00
C113   C     0.25757   0.10788   0.43703   0.00000  Uiso   1.00
C114   C     0.21707   0.12548   0.39565   0.00000  Uiso   1.00
C115   C     0.17497   0.16515   0.41354   0.00000  Uiso   1.00
H116   H     0.30340   0.12063   0.57680   0.00000  Uiso   1.00
H117   H     0.28991   0.01741   0.62089   0.00000  Uiso   1.00
H118   H     0.40700   0.16519   0.56901   0.00000  Uiso   1.00
H119   H     0.21290   0.18525   0.55651   0.00000  Uiso   1.00
H120   H     0.27564   0.89360   0.64453   0.00000  Uiso   1.00
H121   H     0.52251   0.20522   0.53514   0.00000  Uiso   1.00
H122   H     0.11322   0.24752   0.50877   0.00000  Uiso   1.00
H123   H     0.30846   0.04835   0.38233   0.00000  Uiso   1.00
H124   H     0.29525   0.94117   0.41575   0.00000  Uiso   1.00
H125   H     0.41233   0.08895   0.36387   0.00000  Uiso   1.00
H126   H     0.21824   0.10901   0.35136   0.00000  Uiso   1.00
H127   H     0.27998   0.83172   0.47803   0.00000  Uiso   1.00
H128   H     0.52684   0.14334   0.36864   0.00000  Uiso   1.00
H129   H     0.11755   0.18564   0.34226   0.00000  Uiso   1.00
O130   O     0.26905   0.79345   0.58678   0.00000  Uiso   1.00
O131   O     0.59292   0.20229   0.44325   0.00000  Uiso   1.00
O132   O     0.05594   0.25779   0.40865   0.00000  Uiso   1.00
N133   N     0.27846   0.89375   0.60076   0.00000  Uiso   1.00
N134   N     0.50927   0.18508   0.49849   0.00000  Uiso   1.00
N135   N     0.12663   0.22465   0.47383   0.00000  Uiso   1.00
N136   N     0.28079   0.86045   0.51117   0.00000  Uiso   1.00
N137   N     0.51160   0.15178   0.40889   0.00000  Uiso   1.00
N138   N     0.12896   0.19135   0.38423   0.00000  Uiso   1.00
C139   C     0.19544   0.89593   0.03225   0.00000  Uiso   1.00
C140   C     0.20207   0.96203   0.02924   0.00000  Uiso   1.00
C141   C     0.20894   0.99906   0.07661   0.00000  Uiso   1.00
C142   C     0.21427   0.05819   0.06472   0.00000  Uiso   1.00
C143   C     0.22476   0.15759   0.06874   0.00000  Uiso   1.00
C144   C     0.13846   0.88175   0.00105   0.00000  Uiso   1.00
C145   C     0.09184   0.85126   0.02473   0.00000  Uiso   1.00
C146   C     0.04361   0.84280   0.98910   0.00000  Uiso   1.00
C147   C     0.95535   0.81752   0.94936   0.00000  Uiso   1.00
C148   C     0.24392   0.87085   0.99426   0.00000  Uiso   1.00
C149   C     0.28596   0.83119   0.01222   0.00000  Uiso   1.00
C150   C     0.32652   0.81355   0.97087   0.00000  Uiso   1.00
C151   C     0.40201   0.77135   0.92058   0.00000  Uiso   1.00
C152   C     0.19270   0.93509   0.92689   0.00000  Uiso   1.00
C153   C     0.20058   0.98330   0.97201   0.00000  Uiso   1.00
C154   C     0.20591   0.04239   0.96004   0.00000  Uiso   1.00
C155   C     0.21278   0.07950   0.00739   0.00000  Uiso   1.00
C156   C     0.13696   0.90301   0.94382   0.00000  Uiso   1.00
C157   C     0.08880   0.89459   0.90816   0.00000  Uiso   1.00
C158   C     0.04212   0.86411   0.93177   0.00000  Uiso   1.00
C159   C     0.24243   0.89212   0.93703   0.00000  Uiso   1.00
C160   C     0.28293   0.87452   0.89565   0.00000  Uiso   1.00
C161   C     0.32503   0.83485   0.91354   0.00000  Uiso   1.00
H162   H     0.19660   0.87937   0.07680   0.00000  Uiso   1.00
H163   H     0.21009   0.98259   0.12089   0.00000  Uiso   1.00
H164   H     0.09300   0.83481   0.06901   0.00000  Uiso   1.00
H165   H     0.28710   0.81475   0.05651   0.00000  Uiso   1.00
H166   H     0.22436   0.10640   0.14453   0.00000  Uiso   1.00
H167   H     0.97749   0.79478   0.03514   0.00000  Uiso   1.00
H168   H     0.38678   0.75248   0.00877   0.00000  Uiso   1.00
H169   H     0.19154   0.95165   0.88233   0.00000  Uiso   1.00
H170   H     0.20475   0.05883   0.91575   0.00000  Uiso   1.00
H171   H     0.08767   0.91105   0.86387   0.00000  Uiso   1.00
H172   H     0.28176   0.89099   0.85136   0.00000  Uiso   1.00
H173   H     0.22002   0.16828   0.97803   0.00000  Uiso   1.00
H174   H     0.97316   0.85666   0.86864   0.00000  Uiso   1.00
H175   H     0.38245   0.81436   0.84226   0.00000  Uiso   1.00
O176   O     0.23095   0.20655   0.08678   0.00000  Uiso   1.00
O177   O     0.90708   0.79771   0.94325   0.00000  Uiso   1.00
O178   O     0.44406   0.74221   0.90865   0.00000  Uiso   1.00
N179   N     0.22154   0.10625   0.10076   0.00000  Uiso   1.00
N180   N     0.99073   0.81492   0.99849   0.00000  Uiso   1.00
N181   N     0.37337   0.77535   0.97383   0.00000  Uiso   1.00
N182   N     0.21921   0.13955   0.01117   0.00000  Uiso   1.00
N183   N     0.98840   0.84822   0.90889   0.00000  Uiso   1.00
N184   N     0.37104   0.80865   0.88423   0.00000  Uiso   1.00
C185   C     0.96775   0.69544   0.60407   0.00000  Uiso   1.00
C186   C     0.97076   0.70207   0.53797   0.00000  Uiso   1.00
C187   C     0.92339   0.70894   0.50094   0.00000  Uiso   1.00
C188   C     0.93528   0.71427   0.44181   0.00000  Uiso   1.00
C189   C     0.93126   0.72476   0.34241   0.00000  Uiso   1.00
C190   C     0.99895   0.63846   0.61825   0.00000  Uiso   1.00
C191   C     0.97527   0.59184   0.64874   0.00000  Uiso   1.00
C192   C     0.01090   0.54361   0.65720   0.00000  Uiso   1.00
C193   C     0.05064   0.45535   0.68248   0.00000  Uiso   1.00
C194   C     0.00574   0.74392   0.62915   0.00000  Uiso   1.00
C195   C     0.98778   0.78596   0.66881   0.00000  Uiso   1.00
C196   C     0.02913   0.82652   0.68645   0.00000  Uiso   1.00
C197   C     0.07942   0.90201   0.72865   0.00000  Uiso   1.00
C198   C     0.07311   0.69270   0.56491   0.00000  Uiso   1.00
C199   C     0.02799   0.70058   0.51670   0.00000  Uiso   1.00
C200   C     0.03996   0.70591   0.45761   0.00000  Uiso   1.00
C201   C     0.99261   0.71278   0.42050   0.00000  Uiso   1.00
C202   C     0.05618   0.63696   0.59699   0.00000  Uiso   1.00
C203   C     0.09184   0.58880   0.60541   0.00000  Uiso   1.00
C204   C     0.06823   0.54212   0.63589   0.00000  Uiso   1.00
C205   C     0.06297   0.74243   0.60788   0.00000  Uiso   1.00
C206   C     0.10435   0.78293   0.62548   0.00000  Uiso   1.00
C207   C     0.08646   0.82503   0.66515   0.00000  Uiso   1.00
H208   H     0.92320   0.69660   0.62063   0.00000  Uiso   1.00
H209   H     0.87911   0.71009   0.51741   0.00000  Uiso   1.00
H210   H     0.93099   0.59300   0.66519   0.00000  Uiso   1.00
H211   H     0.94349   0.78710   0.68525   0.00000  Uiso   1.00
H212   H     0.85547   0.72436   0.39360   0.00000  Uiso   1.00
H213   H     0.96486   0.47749   0.70522   0.00000  Uiso   1.00
H214   H     0.99123   0.88678   0.74752   0.00000  Uiso   1.00
H215   H     0.11767   0.69154   0.54835   0.00000  Uiso   1.00
H216   H     0.08425   0.70475   0.44117   0.00000  Uiso   1.00
H217   H     0.13613   0.58767   0.58895   0.00000  Uiso   1.00
H218   H     0.14864   0.78176   0.60901   0.00000  Uiso   1.00
H219   H     0.02197   0.72002   0.33172   0.00000  Uiso   1.00
H220   H     0.13136   0.47316   0.64334   0.00000  Uiso   1.00
H221   H     0.15774   0.88245   0.68564   0.00000  Uiso   1.00
O222   O     0.91322   0.73095   0.29345   0.00000  Uiso   1.00
O223   O     0.05675   0.40708   0.70229   0.00000  Uiso   1.00
O224   O     0.09135   0.94406   0.75779   0.00000  Uiso   1.00
N225   N     0.89924   0.72154   0.39375   0.00000  Uiso   1.00
N226   N     0.00151   0.49073   0.68508   0.00000  Uiso   1.00
N227   N     0.02617   0.87337   0.72465   0.00000  Uiso   1.00
N228   N     0.98883   0.71921   0.36045   0.00000  Uiso   1.00
N229   N     0.09111   0.48840   0.65178   0.00000  Uiso   1.00
N230   N     0.11577   0.87104   0.69135   0.00000  Uiso   1.00
C231   C     0.46775   0.80456   0.39593   0.00000  Uiso   1.00
C232   C     0.47076   0.79793   0.46203   0.00000  Uiso   1.00
C233   C     0.42339   0.79106   0.49906   0.00000  Uiso   1.00
C234   C     0.43528   0.78573   0.55819   0.00000  Uiso   1.00
C235   C     0.43126   0.77524   0.65759   0.00000  Uiso   1.00
C236   C     0.49895   0.86154   0.38175   0.00000  Uiso   1.00
C237   C     0.47527   0.90816   0.35126   0.00000  Uiso   1.00
C238   C     0.51090   0.95639   0.34280   0.00000  Uiso   1.00
C239   C     0.55064   0.04465   0.31752   0.00000  Uiso   1.00
C240   C     0.50574   0.75608   0.37085   0.00000  Uiso   1.00
C241   C     0.48778   0.71404   0.33119   0.00000  Uiso   1.00
C242   C     0.52913   0.67348   0.31355   0.00000  Uiso   1.00
C243   C     0.57942   0.59799   0.27135   0.00000  Uiso   1.00
C244   C     0.57311   0.80730   0.43509   0.00000  Uiso   1.00
C245   C     0.52799   0.79942   0.48330   0.00000  Uiso   1.00
C246   C     0.53996   0.79409   0.54239   0.00000  Uiso   1.00
C247   C     0.49261   0.78722   0.57950   0.00000  Uiso   1.00
C248   C     0.55618   0.86304   0.40301   0.00000  Uiso   1.00
C249   C     0.59184   0.91120   0.39459   0.00000  Uiso   1.00
C250   C     0.56823   0.95788   0.36411   0.00000  Uiso   1.00
C251   C     0.56297   0.75757   0.39212   0.00000  Uiso   1.00
C252   C     0.60435   0.71707   0.37452   0.00000  Uiso   1.00
C253   C     0.58646   0.67497   0.33485   0.00000  Uiso   1.00
H254   H     0.42320   0.80340   0.37937   0.00000  Uiso   1.00
H255   H     0.37911   0.78991   0.48259   0.00000  Uiso   1.00
H256   H     0.43099   0.90700   0.33481   0.00000  Uiso   1.00
H257   H     0.44349   0.71290   0.31475   0.00000  Uiso   1.00
H258   H     0.35547   0.77564   0.60640   0.00000  Uiso   1.00
H259   H     0.46486   0.02251   0.29478   0.00000  Uiso   1.00
H260   H     0.49123   0.61322   0.25248   0.00000  Uiso   1.00
H261   H     0.61767   0.80846   0.45165   0.00000  Uiso   1.00
H262   H     0.58425   0.79525   0.55883   0.00000  Uiso   1.00
H263   H     0.63613   0.91233   0.41105   0.00000  Uiso   1.00
H264   H     0.64864   0.71824   0.39099   0.00000  Uiso   1.00
H265   H     0.52197   0.77998   0.66828   0.00000  Uiso   1.00
H266   H     0.63136   0.02684   0.35666   0.00000  Uiso   1.00
H267   H     0.65774   0.61755   0.31436   0.00000  Uiso   1.00
O268   O     0.41322   0.76905   0.70655   0.00000  Uiso   1.00
O269   O     0.55675   0.09292   0.29771   0.00000  Uiso   1.00
O270   O     0.59135   0.55594   0.24221   0.00000  Uiso   1.00
N271   N     0.39924   0.77846   0.60625   0.00000  Uiso   1.00
N272   N     0.50151   0.00927   0.31492   0.00000  Uiso   1.00
N273   N     0.52617   0.62663   0.27535   0.00000  Uiso   1.00
N274   N     0.48883   0.78079   0.63955   0.00000  Uiso   1.00
N275   N     0.59111   0.01160   0.34822   0.00000  Uiso   1.00
N276   N     0.61577   0.62896   0.30865   0.00000  Uiso   1.00
C277   C     0.53225   0.30456   0.10407   0.00000  Uiso   1.00
C278   C     0.52924   0.29793   0.03797   0.00000  Uiso   1.00
C279   C     0.57661   0.29106   0.00094   0.00000  Uiso   1.00
C280   C     0.56472   0.28573   0.94181   0.00000  Uiso   1.00
C281   C     0.56874   0.27524   0.84241   0.00000  Uiso   1.00
C282   C     0.50105   0.36154   0.11825   0.00000  Uiso   1.00
C283   C     0.52473   0.40816   0.14874   0.00000  Uiso   1.00
C284   C     0.48910   0.45639   0.15720   0.00000  Uiso   1.00
C285   C     0.44936   0.54465   0.18248   0.00000  Uiso   1.00
C286   C     0.49426   0.25608   0.12915   0.00000  Uiso   1.00
C287   C     0.51222   0.21404   0.16881   0.00000  Uiso   1.00
C288   C     0.47087   0.17348   0.18645   0.00000  Uiso   1.00
C289   C     0.42058   0.09799   0.22865   0.00000  Uiso   1.00
C290   C     0.42689   0.30730   0.06491   0.00000  Uiso   1.00
C291   C     0.47201   0.29942   0.01670   0.00000  Uiso   1.00
C292   C     0.46004   0.29409   0.95761   0.00000  Uiso   1.00
C293   C     0.50739   0.28722   0.92050   0.00000  Uiso   1.00
C294   C     0.44382   0.36304   0.09699   0.00000  Uiso   1.00
C295   C     0.40816   0.41120   0.10541   0.00000  Uiso   1.00
C296   C     0.43177   0.45788   0.13589   0.00000  Uiso   1.00
C297   C     0.43703   0.25757   0.10788   0.00000  Uiso   1.00
C298   C     0.39565   0.21707   0.12548   0.00000  Uiso   1.00
C299   C     0.41354   0.17497   0.16515   0.00000  Uiso   1.00
H300   H     0.57680   0.30340   0.12063   0.00000  Uiso   1.00
H301   H     0.62089   0.28991   0.01741   0.00000  Uiso   1.00
H302   H     0.56901   0.40700   0.16519   0.00000  Uiso   1.00
H303   H     0.55651   0.21290   0.18525   0.00000  Uiso   1.00
H304   H     0.64453   0.27564   0.89360   0.00000  Uiso   1.00
H305   H     0.53514   0.52251   0.20522   0.00000  Uiso   1.00
H306   H     0.50877   0.11322   0.24752   0.00000  Uiso   1.00
H307   H     0.38233   0.30846   0.04835   0.00000  Uiso   1.00
H308   H     0.41575   0.29525   0.94117   0.00000  Uiso   1.00
H309   H     0.36387   0.41233   0.08895   0.00000  Uiso   1.00
H310   H     0.35136   0.21824   0.10901   0.00000  Uiso   1.00
H311   H     0.47803   0.27998   0.83172   0.00000  Uiso   1.00
H312   H     0.36864   0.52684   0.14334   0.00000  Uiso   1.00
H313   H     0.34226   0.11755   0.18564   0.00000  Uiso   1.00
O314   O     0.58678   0.26905   0.79345   0.00000  Uiso   1.00
O315   O     0.44325   0.59292   0.20229   0.00000  Uiso   1.00
O316   O     0.40865   0.05594   0.25779   0.00000  Uiso   1.00
N317   N     0.60076   0.27846   0.89375   0.00000  Uiso   1.00
N318   N     0.49849   0.50927   0.18508   0.00000  Uiso   1.00
N319   N     0.47383   0.12663   0.22465   0.00000  Uiso   1.00
N320   N     0.51117   0.28079   0.86045   0.00000  Uiso   1.00
N321   N     0.40889   0.51160   0.15178   0.00000  Uiso   1.00
N322   N     0.38423   0.12896   0.19135   0.00000  Uiso   1.00
C323   C     0.03225   0.19544   0.89593   0.00000  Uiso   1.00
C324   C     0.02924   0.20207   0.96203   0.00000  Uiso   1.00
C325   C     0.07661   0.20894   0.99906   0.00000  Uiso   1.00
C326   C     0.06472   0.21427   0.05819   0.00000  Uiso   1.00
C327   C     0.06874   0.22476   0.15759   0.00000  Uiso   1.00
C328   C     0.00105   0.13846   0.88175   0.00000  Uiso   1.00
C329   C     0.02473   0.09184   0.85126   0.00000  Uiso   1.00
C330   C     0.98910   0.04361   0.84280   0.00000  Uiso   1.00
C331   C     0.94936   0.95535   0.81752   0.00000  Uiso   1.00
C332   C     0.99426   0.24392   0.87085   0.00000  Uiso   1.00
C333   C     0.01222   0.28596   0.83119   0.00000  Uiso   1.00
C334   C     0.97087   0.32652   0.81355   0.00000  Uiso   1.00
C335   C     0.92058   0.40201   0.77135   0.00000  Uiso   1.00
C336   C     0.92689   0.19270   0.93509   0.00000  Uiso   1.00
C337   C     0.97201   0.20058   0.98330   0.00000  Uiso   1.00
C338   C     0.96004   0.20591   0.04239   0.00000  Uiso   1.00
C339   C     0.00739   0.21278   0.07950   0.00000  Uiso   1.00
C340   C     0.94382   0.13696   0.90301   0.00000  Uiso   1.00
C341   C     0.90816   0.08880   0.89459   0.00000  Uiso   1.00
C342   C     0.93177   0.04212   0.86411   0.00000  Uiso   1.00
C343   C     0.93703   0.24243   0.89212   0.00000  Uiso   1.00
C344   C     0.89565   0.28293   0.87452   0.00000  Uiso   1.00
C345   C     0.91354   0.32503   0.83485   0.00000  Uiso   1.00
H346   H     0.07680   0.19660   0.87937   0.00000  Uiso   1.00
H347   H     0.12089   0.21009   0.98259   0.00000  Uiso   1.00
H348   H     0.06901   0.09300   0.83481   0.00000  Uiso   1.00
H349   H     0.05651   0.28710   0.81475   0.00000  Uiso   1.00
H350   H     0.14453   0.22436   0.10640   0.00000  Uiso   1.00
H351   H     0.03514   0.97749   0.79478   0.00000  Uiso   1.00
H352   H     0.00877   0.38678   0.75248   0.00000  Uiso   1.00
H353   H     0.88233   0.19154   0.95165   0.00000  Uiso   1.00
H354   H     0.91575   0.20475   0.05883   0.00000  Uiso   1.00
H355   H     0.86387   0.08767   0.91105   0.00000  Uiso   1.00
H356   H     0.85136   0.28176   0.89099   0.00000  Uiso   1.00
H357   H     0.97803   0.22002   0.16828   0.00000  Uiso   1.00
H358   H     0.86864   0.97316   0.85666   0.00000  Uiso   1.00
H359   H     0.84226   0.38245   0.81436   0.00000  Uiso   1.00
O360   O     0.08678   0.23095   0.20655   0.00000  Uiso   1.00
O361   O     0.94325   0.90708   0.79771   0.00000  Uiso   1.00
O362   O     0.90865   0.44406   0.74221   0.00000  Uiso   1.00
N363   N     0.10076   0.22154   0.10625   0.00000  Uiso   1.00
N364   N     0.99849   0.99073   0.81492   0.00000  Uiso   1.00
N365   N     0.97383   0.37337   0.77535   0.00000  Uiso   1.00
N366   N     0.01117   0.21921   0.13955   0.00000  Uiso   1.00
N367   N     0.90889   0.98840   0.84822   0.00000  Uiso   1.00
N368   N     0.88423   0.37104   0.80865   0.00000  Uiso   1.00
C369   C     0.60407   0.96775   0.69544   0.00000  Uiso   1.00
C370   C     0.53797   0.97076   0.70207   0.00000  Uiso   1.00
C371   C     0.50094   0.92339   0.70894   0.00000  Uiso   1.00
C372   C     0.44181   0.93528   0.71427   0.00000  Uiso   1.00
C373   C     0.34241   0.93126   0.72476   0.00000  Uiso   1.00
C374   C     0.61825   0.99895   0.63846   0.00000  Uiso   1.00
C375   C     0.64874   0.97527   0.59184   0.00000  Uiso   1.00
C376   C     0.65720   0.01090   0.54361   0.00000  Uiso   1.00
C377   C     0.68248   0.05064   0.45535   0.00000  Uiso   1.00
C378   C     0.62915   0.00574   0.74392   0.00000  Uiso   1.00
C379   C     0.66881   0.98778   0.78596   0.00000  Uiso   1.00
C380   C     0.68645   0.02913   0.82652   0.00000  Uiso   1.00
C381   C     0.72865   0.07942   0.90201   0.00000  Uiso   1.00
C382   C     0.56491   0.07311   0.69270   0.00000  Uiso   1.00
C383   C     0.51670   0.02799   0.70058   0.00000  Uiso   1.00
C384   C     0.45761   0.03996   0.70591   0.00000  Uiso   1.00
C385   C     0.42050   0.99261   0.71278   0.00000  Uiso   1.00
C386   C     0.59699   0.05618   0.63696   0.00000  Uiso   1.00
C387   C     0.60541   0.09184   0.58880   0.00000  Uiso   1.00
C388   C     0.63589   0.06823   0.54212   0.00000  Uiso   1.00
C389   C     0.60788   0.06297   0.74243   0.00000  Uiso   1.00
C390   C     0.62548   0.10435   0.78293   0.00000  Uiso   1.00
C391   C     0.66515   0.08646   0.82503   0.00000  Uiso   1.00
H392   H     0.62063   0.92320   0.69660   0.00000  Uiso   1.00
H393   H     0.51741   0.87911   0.71009   0.00000  Uiso   1.00
H394   H     0.66519   0.93099   0.59300   0.00000  Uiso   1.00
H395   H     0.68525   0.94349   0.78710   0.00000  Uiso   1.00
H396   H     0.39360   0.85547   0.72436   0.00000  Uiso   1.00
H397   H     0.70522   0.96486   0.47749   0.00000  Uiso   1.00
H398   H     0.74752   0.99123   0.88678   0.00000  Uiso   1.00
H399   H     0.54835   0.11767   0.69154   0.00000  Uiso   1.00
H400   H     0.44117   0.08425   0.70475   0.00000  Uiso   1.00
H401   H     0.58895   0.13613   0.58767   0.00000  Uiso   1.00
H402   H     0.60901   0.14864   0.78176   0.00000  Uiso   1.00
H403   H     0.33172   0.02197   0.72002   0.00000  Uiso   1.00
H404   H     0.64334   0.13136   0.47316   0.00000  Uiso   1.00
H405   H     0.68564   0.15774   0.88245   0.00000  Uiso   1.00
O406   O     0.29345   0.91322   0.73095   0.00000  Uiso   1.00
O407   O     0.70229   0.05675   0.40708   0.00000  Uiso   1.00
O408   O     0.75779   0.09135   0.94406   0.00000  Uiso   1.00
N409   N     0.39375   0.89924   0.72154   0.00000  Uiso   1.00
N410   N     0.68508   0.00151   0.49073   0.00000  Uiso   1.00
N411   N     0.72465   0.02617   0.87337   0.00000  Uiso   1.00
N412   N     0.36045   0.98883   0.71921   0.00000  Uiso   1.00
N413   N     0.65178   0.09111   0.48840   0.00000  Uiso   1.00
N414   N     0.69135   0.11577   0.87104   0.00000  Uiso   1.00
C415   C     0.39593   0.46775   0.80456   0.00000  Uiso   1.00
C416   C     0.46203   0.47076   0.79793   0.00000  Uiso   1.00
C417   C     0.49906   0.42339   0.79106   0.00000  Uiso   1.00
C418   C     0.55819   0.43528   0.78573   0.00000  Uiso   1.00
C419   C     0.65759   0.43126   0.77524   0.00000  Uiso   1.00
C420   C     0.38175   0.49895   0.86154   0.00000  Uiso   1.00
C421   C     0.35126   0.47527   0.90816   0.00000  Uiso   1.00
C422   C     0.34280   0.51090   0.95639   0.00000  Uiso   1.00
C423   C     0.31752   0.55064   0.04465   0.00000  Uiso   1.00
C424   C     0.37085   0.50574   0.75608   0.00000  Uiso   1.00
C425   C     0.33119   0.48778   0.71404   0.00000  Uiso   1.00
C426   C     0.31355   0.52913   0.67348   0.00000  Uiso   1.00
C427   C     0.27135   0.57942   0.59799   0.00000  Uiso   1.00
C428   C     0.43509   0.57311   0.80730   0.00000  Uiso   1.00
C429   C     0.48330   0.52799   0.79942   0.00000  Uiso   1.00
C430   C     0.54239   0.53996   0.79409   0.00000  Uiso   1.00
C431   C     0.57950   0.49261   0.78722   0.00000  Uiso   1.00
C432   C     0.40301   0.55618   0.86304   0.00000  Uiso   1.00
C433   C     0.39459   0.59184   0.91120   0.00000  Uiso   1.00
C434   C     0.36411   0.56823   0.95788   0.00000  Uiso   1.00
C435   C     0.39212   0.56297   0.75757   0.00000  Uiso   1.00
C436   C     0.37452   0.60435   0.71707   0.00000  Uiso   1.00
C437   C     0.33485   0.58646   0.67497   0.00000  Uiso   1.00
H438   H     0.37937   0.42320   0.80340   0.00000  Uiso   1.00
H439   H     0.48259   0.37911   0.78991   0.00000  Uiso   1.00
H440   H     0.33481   0.43099   0.90700   0.00000  Uiso   1.00
H441   H     0.31475   0.44349   0.71290   0.00000  Uiso   1.00
H442   H     0.60640   0.35547   0.77564   0.00000  Uiso   1.00
H443   H     0.29478   0.46486   0.02251   0.00000  Uiso   1.00
H444   H     0.25248   0.49123   0.61322   0.00000  Uiso   1.00
H445   H     0.45165   0.61767   0.80846   0.00000  Uiso   1.00
H446   H     0.55883   0.58425   0.79525   0.00000  Uiso   1.00
H447   H     0.41105   0.63613   0.91233   0.00000  Uiso   1.00
H448   H     0.39099   0.64864   0.71824   0.00000  Uiso   1.00
H449   H     0.66828   0.52197   0.77998   0.00000  Uiso   1.00
H450   H     0.35666   0.63136   0.02684   0.00000  Uiso   1.00
H451   H     0.31436   0.65774   0.61755   0.00000  Uiso   1.00
O452   O     0.70655   0.41322   0.76905   0.00000  Uiso   1.00
O453   O     0.29771   0.55675   0.09292   0.00000  Uiso   1.00
O454   O     0.24221   0.59135   0.55594   0.00000  Uiso   1.00
N455   N     0.60625   0.39924   0.77846   0.00000  Uiso   1.00
N456   N     0.31492   0.50151   0.00927   0.00000  Uiso   1.00
N457   N     0.27535   0.52617   0.62663   0.00000  Uiso   1.00
N458   N     0.63955   0.48883   0.78079   0.00000  Uiso   1.00
N459   N     0.34822   0.59111   0.01160   0.00000  Uiso   1.00
N460   N     0.30865   0.61577   0.62896   0.00000  Uiso   1.00
C461   C     0.10407   0.53225   0.30456   0.00000  Uiso   1.00
C462   C     0.03797   0.52924   0.29793   0.00000  Uiso   1.00
C463   C     0.00094   0.57661   0.29106   0.00000  Uiso   1.00
C464   C     0.94181   0.56472   0.28573   0.00000  Uiso   1.00
C465   C     0.84241   0.56874   0.27524   0.00000  Uiso   1.00
C466   C     0.11825   0.50105   0.36154   0.00000  Uiso   1.00
C467   C     0.14874   0.52473   0.40816   0.00000  Uiso   1.00
C468   C     0.15720   0.48910   0.45639   0.00000  Uiso   1.00
C469   C     0.18248   0.44936   0.54465   0.00000  Uiso   1.00
C470   C     0.12915   0.49426   0.25608   0.00000  Uiso   1.00
C471   C     0.16881   0.51222   0.21404   0.00000  Uiso   1.00
C472   C     0.18645   0.47087   0.17348   0.00000  Uiso   1.00
C473   C     0.22865   0.42058   0.09799   0.00000  Uiso   1.00
C474   C     0.06491   0.42689   0.30730   0.00000  Uiso   1.00
C475   C     0.01670   0.47201   0.29942   0.00000  Uiso   1.00
C476   C     0.95761   0.46004   0.29409   0.00000  Uiso   1.00
C477   C     0.92050   0.50739   0.28722   0.00000  Uiso   1.00
C478   C     0.09699   0.44382   0.36304   0.00000  Uiso   1.00
C479   C     0.10541   0.40816   0.41120   0.00000  Uiso   1.00
C480   C     0.13589   0.43177   0.45788   0.00000  Uiso   1.00
C481   C     0.10788   0.43703   0.25757   0.00000  Uiso   1.00
C482   C     0.12548   0.39565   0.21707   0.00000  Uiso   1.00
C483   C     0.16515   0.41354   0.17497   0.00000  Uiso   1.00
H484   H     0.12063   0.57680   0.30340   0.00000  Uiso   1.00
H485   H     0.01741   0.62089   0.28991   0.00000  Uiso   1.00
H486   H     0.16519   0.56901   0.40700   0.00000  Uiso   1.00
H487   H     0.18525   0.55651   0.21290   0.00000  Uiso   1.00
H488   H     0.89360   0.64453   0.27564   0.00000  Uiso   1.00
H489   H     0.20522   0.53514   0.52251   0.00000  Uiso   1.00
H490   H     0.24752   0.50877   0.11322   0.00000  Uiso   1.00
H491   H     0.04835   0.38233   0.30846   0.00000  Uiso   1.00
H492   H     0.94117   0.41575   0.29525   0.00000  Uiso   1.00
H493   H     0.08895   0.36387   0.41233   0.00000  Uiso   1.00
H494   H     0.10901   0.35136   0.21824   0.00000  Uiso   1.00
H495   H     0.83172   0.47803   0.27998   0.00000  Uiso   1.00
H496   H     0.14334   0.36864   0.52684   0.00000  Uiso   1.00
H497   H     0.18564   0.34226   0.11755   0.00000  Uiso   1.00
O498   O     0.79345   0.58678   0.26905   0.00000  Uiso   1.00
O499   O     0.20229   0.44325   0.59292   0.00000  Uiso   1.00
O500   O     0.25779   0.40865   0.05594   0.00000  Uiso   1.00
N501   N     0.89375   0.60076   0.27846   0.00000  Uiso   1.00
N502   N     0.18508   0.49849   0.50927   0.00000  Uiso   1.00
N503   N     0.22465   0.47383   0.12663   0.00000  Uiso   1.00
N504   N     0.86045   0.51117   0.28079   0.00000  Uiso   1.00
N505   N     0.15178   0.40889   0.51160   0.00000  Uiso   1.00
N506   N     0.19135   0.38423   0.12896   0.00000  Uiso   1.00
C507   C     0.89593   0.03225   0.19544   0.00000  Uiso   1.00
C508   C     0.96203   0.02924   0.20207   0.00000  Uiso   1.00
C509   C     0.99906   0.07661   0.20894   0.00000  Uiso   1.00
C510   C     0.05819   0.06472   0.21427   0.00000  Uiso   1.00
C511   C     0.15759   0.06874   0.22476   0.00000  Uiso   1.00
C512   C     0.88175   0.00105   0.13846   0.00000  Uiso   1.00
C513   C     0.85126   0.02473   0.09184   0.00000  Uiso   1.00
C514   C     0.84280   0.98910   0.04361   0.00000  Uiso   1.00
C515   C     0.81752   0.94936   0.95535   0.00000  Uiso   1.00
C516   C     0.87085   0.99426   0.24392   0.00000  Uiso   1.00
C517   C     0.83119   0.01222   0.28596   0.00000  Uiso   1.00
C518   C     0.81355   0.97087   0.32652   0.00000  Uiso   1.00
C519   C     0.77135   0.92058   0.40201   0.00000  Uiso   1.00
C520   C     0.93509   0.92689   0.19270   0.00000  Uiso   1.00
C521   C     0.98330   0.97201   0.20058   0.00000  Uiso   1.00
C522   C     0.04239   0.96004   0.20591   0.00000  Uiso   1.00
C523   C     0.07950   0.00739   0.21278   0.00000  Uiso   1.00
C524   C     0.90301   0.94382   0.13696   0.00000  Uiso   1.00
C525   C     0.89459   0.90816   0.08880   0.00000  Uiso   1.00
C526   C     0.86411   0.93177   0.04212   0.00000  Uiso   1.00
C527   C     0.89212   0.93703   0.24243   0.00000  Uiso   1.00
C528   C     0.87452   0.89565   0.28293   0.00000  Uiso   1.00
C529   C     0.83485   0.91354   0.32503   0.00000  Uiso   1.00
H530   H     0.87937   0.07680   0.19660   0.00000  Uiso   1.00
H531   H     0.98259   0.12089   0.21009   0.00000  Uiso   1.00
H532   H     0.83481   0.06901   0.09300   0.00000  Uiso   1.00
H533   H     0.81475   0.05651   0.28710   0.00000  Uiso   1.00
H534   H     0.10640   0.14453   0.22436   0.00000  Uiso   1.00
H535   H     0.79478   0.03514   0.97749   0.00000  Uiso   1.00
H536   H     0.75248   0.00877   0.38678   0.00000  Uiso   1.00
H537   H     0.95165   0.88233   0.19154   0.00000  Uiso   1.00
H538   H     0.05883   0.91575   0.20475   0.00000  Uiso   1.00
H539   H     0.91105   0.86387   0.08767   0.00000  Uiso   1.00
H540   H     0.89099   0.85136   0.28176   0.00000  Uiso   1.00
H541   H     0.16828   0.97803   0.22002   0.00000  Uiso   1.00
H542   H     0.85666   0.86864   0.97316   0.00000  Uiso   1.00
H543   H     0.81436   0.84226   0.38245   0.00000  Uiso   1.00
O544   O     0.20655   0.08678   0.23095   0.00000  Uiso   1.00
O545   O     0.79771   0.94325   0.90708   0.00000  Uiso   1.00
O546   O     0.74221   0.90865   0.44406   0.00000  Uiso   1.00
N547   N     0.10625   0.10076   0.22154   0.00000  Uiso   1.00
N548   N     0.81492   0.99849   0.99073   0.00000  Uiso   1.00
N549   N     0.77535   0.97383   0.37337   0.00000  Uiso   1.00
N550   N     0.13955   0.01117   0.21921   0.00000  Uiso   1.00
N551   N     0.84822   0.90889   0.98840   0.00000  Uiso   1.00
N552   N     0.80865   0.88423   0.37104   0.00000  Uiso   1.00
