data_job_02740
_audit_creation_date              2018-12-19
_audit_creation_method            'Materials Studio'
_symmetry_space_group_name_H-M    'P1'
_symmetry_Int_Tables_number       1
_symmetry_cell_setting            triclinic
loop_
_symmetry_equiv_pos_as_xyz
  x,y,z
_cell_length_a                    15.0263
_cell_length_b                    12.3451
_cell_length_c                    19.8824
_cell_angle_alpha                 90.0000
_cell_angle_beta                  64.4638
_cell_angle_gamma                 90.0000
loop_
_atom_site_label
_atom_site_type_symbol
_atom_site_fract_x
_atom_site_fract_y
_atom_site_fract_z
_atom_site_U_iso_or_equiv
_atom_site_adp_type
_atom_site_occupancy
C1     C     0.68544   0.00491   0.79939   0.00000  Uiso   1.00
C2     C     0.75155   0.00062   0.83984   0.00000  Uiso   1.00
C3     C     0.76902   0.90978   0.87350   0.00000  Uiso   1.00
C4     C     0.83180   0.92253   0.90764   0.00000  Uiso   1.00
C5     C     0.92777   0.90067   0.97042   0.00000  Uiso   1.00
C6     C     0.60983   0.09367   0.83768   0.00000  Uiso   1.00
C7     C     0.50813   0.08106   0.86951   0.00000  Uiso   1.00
C8     C     0.45162   0.17214   0.90182   0.00000  Uiso   1.00
C9     C     0.32756   0.29475   0.96120   0.00000  Uiso   1.00
C10    C     0.75007   0.04665   0.72117   0.00000  Uiso   1.00
C11    C     0.76628   0.99453   0.65504   0.00000  Uiso   1.00
C12    C     0.82783   0.04605   0.58925   0.00000  Uiso   1.00
C13    C     0.92151   0.09567   0.46773   0.00000  Uiso   1.00
C14    C     0.76590   0.18909   0.80014   0.00000  Uiso   1.00
C15    C     0.79525   0.10066   0.84025   0.00000  Uiso   1.00
C16    C     0.85804   0.11355   0.87434   0.00000  Uiso   1.00
C17    C     0.87559   0.02275   0.90805   0.00000  Uiso   1.00
C18    C     0.65353   0.19370   0.83809   0.00000  Uiso   1.00
C19    C     0.59715   0.28483   0.87035   0.00000  Uiso   1.00
C20    C     0.49540   0.27236   0.90223   0.00000  Uiso   1.00
C21    C     0.79378   0.14670   0.72158   0.00000  Uiso   1.00
C22    C     0.85531   0.19831   0.65588   0.00000  Uiso   1.00
C23    C     0.87161   0.14627   0.58966   0.00000  Uiso   1.00
H24    H     0.65141   0.92703   0.79907   0.00000  Uiso   1.00
H25    H     0.73517   0.83237   0.87318   0.00000  Uiso   1.00
H26    H     0.47433   0.00363   0.86918   0.00000  Uiso   1.00
H27    H     0.73245   0.91712   0.65474   0.00000  Uiso   1.00
H28    H     0.84728   0.77157   0.95555   0.00000  Uiso   1.00
H29    H     0.29729   0.13267   0.94710   0.00000  Uiso   1.00
H30    H     0.84156   0.95025   0.49491   0.00000  Uiso   1.00
H31    H     0.79993   0.26698   0.80046   0.00000  Uiso   1.00
H32    H     0.89185   0.19098   0.87465   0.00000  Uiso   1.00
H33    H     0.63100   0.36223   0.87065   0.00000  Uiso   1.00
H34    H     0.88911   0.27572   0.65622   0.00000  Uiso   1.00
H35    H     0.97444   0.06262   0.95675   0.00000  Uiso   1.00
H36    H     0.42444   0.42373   0.94829   0.00000  Uiso   1.00
H37    H     0.96872   0.24131   0.49611   0.00000  Uiso   1.00
O38    O     0.96862   0.86098   0.00495   0.00000  Uiso   1.00
O39    O     0.24705   0.33474   0.99384   0.00000  Uiso   1.00
O40    O     0.96113   0.09540   0.40059   0.00000  Uiso   1.00
N41    N     0.86461   0.85049   0.94564   0.00000  Uiso   1.00
N42    N     0.35040   0.18810   0.93775   0.00000  Uiso   1.00
N43    N     0.85923   0.01756   0.51499   0.00000  Uiso   1.00
N44    N     0.93303   0.00711   0.94628   0.00000  Uiso   1.00
N45    N     0.41882   0.34472   0.93839   0.00000  Uiso   1.00
N46    N     0.92765   0.17418   0.51563   0.00000  Uiso   1.00
C47    C     0.31456   0.50491   0.70061   0.00000  Uiso   1.00
C48    C     0.24845   0.50062   0.66016   0.00000  Uiso   1.00
C49    C     0.23098   0.40978   0.62650   0.00000  Uiso   1.00
C50    C     0.16820   0.42253   0.59236   0.00000  Uiso   1.00
C51    C     0.07223   0.40067   0.52958   0.00000  Uiso   1.00
C52    C     0.39017   0.59367   0.66232   0.00000  Uiso   1.00
C53    C     0.49187   0.58106   0.63049   0.00000  Uiso   1.00
C54    C     0.54838   0.67214   0.59818   0.00000  Uiso   1.00
C55    C     0.67244   0.79475   0.53880   0.00000  Uiso   1.00
C56    C     0.24993   0.54665   0.77883   0.00000  Uiso   1.00
C57    C     0.23372   0.49453   0.84496   0.00000  Uiso   1.00
C58    C     0.17217   0.54605   0.91075   0.00000  Uiso   1.00
C59    C     0.07849   0.59567   0.03227   0.00000  Uiso   1.00
C60    C     0.23410   0.68909   0.69986   0.00000  Uiso   1.00
C61    C     0.20475   0.60066   0.65975   0.00000  Uiso   1.00
C62    C     0.14196   0.61355   0.62566   0.00000  Uiso   1.00
C63    C     0.12441   0.52275   0.59195   0.00000  Uiso   1.00
C64    C     0.34647   0.69370   0.66191   0.00000  Uiso   1.00
C65    C     0.40285   0.78483   0.62965   0.00000  Uiso   1.00
C66    C     0.50460   0.77236   0.59777   0.00000  Uiso   1.00
C67    C     0.20622   0.64670   0.77842   0.00000  Uiso   1.00
C68    C     0.14469   0.69831   0.84412   0.00000  Uiso   1.00
C69    C     0.12839   0.64627   0.91034   0.00000  Uiso   1.00
H70    H     0.34859   0.42703   0.70093   0.00000  Uiso   1.00
H71    H     0.26483   0.33237   0.62682   0.00000  Uiso   1.00
H72    H     0.52567   0.50363   0.63082   0.00000  Uiso   1.00
H73    H     0.26755   0.41712   0.84526   0.00000  Uiso   1.00
H74    H     0.15272   0.27157   0.54445   0.00000  Uiso   1.00
H75    H     0.70271   0.63267   0.55290   0.00000  Uiso   1.00
H76    H     0.15844   0.45025   0.00509   0.00000  Uiso   1.00
H77    H     0.20007   0.76698   0.69954   0.00000  Uiso   1.00
H78    H     0.10815   0.69098   0.62535   0.00000  Uiso   1.00
H79    H     0.36900   0.86223   0.62935   0.00000  Uiso   1.00
H80    H     0.11089   0.77572   0.84378   0.00000  Uiso   1.00
H81    H     0.02556   0.56262   0.54325   0.00000  Uiso   1.00
H82    H     0.57556   0.92373   0.55171   0.00000  Uiso   1.00
H83    H     0.03128   0.74131   0.00389   0.00000  Uiso   1.00
O84    O     0.03138   0.36098   0.49505   0.00000  Uiso   1.00
O85    O     0.75295   0.83474   0.50616   0.00000  Uiso   1.00
O86    O     0.03887   0.59540   0.09941   0.00000  Uiso   1.00
N87    N     0.13539   0.35049   0.55436   0.00000  Uiso   1.00
N88    N     0.64960   0.68810   0.56225   0.00000  Uiso   1.00
N89    N     0.14077   0.51756   0.98501   0.00000  Uiso   1.00
N90    N     0.06697   0.50711   0.55372   0.00000  Uiso   1.00
N91    N     0.58118   0.84472   0.56161   0.00000  Uiso   1.00
N92    N     0.07235   0.67418   0.98437   0.00000  Uiso   1.00
C93    C     0.31456   0.99509   0.20061   0.00000  Uiso   1.00
C94    C     0.24845   0.99938   0.16016   0.00000  Uiso   1.00
C95    C     0.23098   0.09022   0.12650   0.00000  Uiso   1.00
C96    C     0.16820   0.07747   0.09236   0.00000  Uiso   1.00
C97    C     0.07223   0.09933   0.02958   0.00000  Uiso   1.00
C98    C     0.39017   0.90633   0.16232   0.00000  Uiso   1.00
C99    C     0.49187   0.91894   0.13049   0.00000  Uiso   1.00
C100   C     0.54838   0.82786   0.09818   0.00000  Uiso   1.00
C101   C     0.67244   0.70525   0.03880   0.00000  Uiso   1.00
C102   C     0.24993   0.95335   0.27883   0.00000  Uiso   1.00
C103   C     0.23372   0.00547   0.34496   0.00000  Uiso   1.00
C104   C     0.17217   0.95395   0.41075   0.00000  Uiso   1.00
C105   C     0.07849   0.90433   0.53227   0.00000  Uiso   1.00
C106   C     0.23410   0.81091   0.19986   0.00000  Uiso   1.00
C107   C     0.20475   0.89934   0.15975   0.00000  Uiso   1.00
C108   C     0.14196   0.88645   0.12566   0.00000  Uiso   1.00
C109   C     0.12441   0.97725   0.09195   0.00000  Uiso   1.00
C110   C     0.34647   0.80630   0.16191   0.00000  Uiso   1.00
C111   C     0.40285   0.71517   0.12965   0.00000  Uiso   1.00
C112   C     0.50460   0.72764   0.09777   0.00000  Uiso   1.00
C113   C     0.20622   0.85330   0.27842   0.00000  Uiso   1.00
C114   C     0.14469   0.80169   0.34412   0.00000  Uiso   1.00
C115   C     0.12839   0.85373   0.41034   0.00000  Uiso   1.00
H116   H     0.34859   0.07297   0.20093   0.00000  Uiso   1.00
H117   H     0.26483   0.16763   0.12682   0.00000  Uiso   1.00
H118   H     0.52567   0.99637   0.13082   0.00000  Uiso   1.00
H119   H     0.26755   0.08288   0.34526   0.00000  Uiso   1.00
H120   H     0.15272   0.22843   0.04445   0.00000  Uiso   1.00
H121   H     0.70271   0.86733   0.05290   0.00000  Uiso   1.00
H122   H     0.15844   0.04975   0.50509   0.00000  Uiso   1.00
H123   H     0.20007   0.73302   0.19954   0.00000  Uiso   1.00
H124   H     0.10815   0.80902   0.12535   0.00000  Uiso   1.00
H125   H     0.36900   0.63777   0.12935   0.00000  Uiso   1.00
H126   H     0.11089   0.72428   0.34378   0.00000  Uiso   1.00
H127   H     0.02556   0.93738   0.04325   0.00000  Uiso   1.00
H128   H     0.57556   0.57627   0.05171   0.00000  Uiso   1.00
H129   H     0.03128   0.75869   0.50389   0.00000  Uiso   1.00
O130   O     0.03138   0.13902   0.99505   0.00000  Uiso   1.00
O131   O     0.75295   0.66526   0.00616   0.00000  Uiso   1.00
O132   O     0.03887   0.90460   0.59941   0.00000  Uiso   1.00
N133   N     0.13539   0.14951   0.05436   0.00000  Uiso   1.00
N134   N     0.64960   0.81190   0.06225   0.00000  Uiso   1.00
N135   N     0.14077   0.98244   0.48501   0.00000  Uiso   1.00
N136   N     0.06697   0.99289   0.05372   0.00000  Uiso   1.00
N137   N     0.58118   0.65528   0.06161   0.00000  Uiso   1.00
N138   N     0.07235   0.82582   0.48437   0.00000  Uiso   1.00
C139   C     0.68544   0.49509   0.29939   0.00000  Uiso   1.00
C140   C     0.75155   0.49938   0.33984   0.00000  Uiso   1.00
C141   C     0.76902   0.59022   0.37350   0.00000  Uiso   1.00
C142   C     0.83180   0.57747   0.40764   0.00000  Uiso   1.00
C143   C     0.92777   0.59933   0.47042   0.00000  Uiso   1.00
C144   C     0.60983   0.40633   0.33768   0.00000  Uiso   1.00
C145   C     0.50813   0.41894   0.36951   0.00000  Uiso   1.00
C146   C     0.45162   0.32786   0.40182   0.00000  Uiso   1.00
C147   C     0.32756   0.20525   0.46120   0.00000  Uiso   1.00
C148   C     0.75007   0.45335   0.22117   0.00000  Uiso   1.00
C149   C     0.76628   0.50547   0.15504   0.00000  Uiso   1.00
C150   C     0.82783   0.45395   0.08925   0.00000  Uiso   1.00
C151   C     0.92151   0.40433   0.96773   0.00000  Uiso   1.00
C152   C     0.76590   0.31091   0.30014   0.00000  Uiso   1.00
C153   C     0.79525   0.39934   0.34025   0.00000  Uiso   1.00
C154   C     0.85804   0.38645   0.37434   0.00000  Uiso   1.00
C155   C     0.87559   0.47725   0.40805   0.00000  Uiso   1.00
C156   C     0.65353   0.30630   0.33809   0.00000  Uiso   1.00
C157   C     0.59715   0.21517   0.37035   0.00000  Uiso   1.00
C158   C     0.49540   0.22764   0.40223   0.00000  Uiso   1.00
C159   C     0.79378   0.35330   0.22158   0.00000  Uiso   1.00
C160   C     0.85531   0.30169   0.15588   0.00000  Uiso   1.00
C161   C     0.87161   0.35373   0.08966   0.00000  Uiso   1.00
H162   H     0.65141   0.57297   0.29907   0.00000  Uiso   1.00
H163   H     0.73517   0.66763   0.37318   0.00000  Uiso   1.00
H164   H     0.47433   0.49637   0.36918   0.00000  Uiso   1.00
H165   H     0.73245   0.58288   0.15474   0.00000  Uiso   1.00
H166   H     0.84728   0.72843   0.45555   0.00000  Uiso   1.00
H167   H     0.29729   0.36733   0.44710   0.00000  Uiso   1.00
H168   H     0.84156   0.54975   0.99491   0.00000  Uiso   1.00
H169   H     0.79993   0.23302   0.30046   0.00000  Uiso   1.00
H170   H     0.89185   0.30902   0.37465   0.00000  Uiso   1.00
H171   H     0.63100   0.13777   0.37065   0.00000  Uiso   1.00
H172   H     0.88911   0.22428   0.15622   0.00000  Uiso   1.00
H173   H     0.97444   0.43738   0.45675   0.00000  Uiso   1.00
H174   H     0.42444   0.07627   0.44829   0.00000  Uiso   1.00
H175   H     0.96872   0.25869   0.99611   0.00000  Uiso   1.00
O176   O     0.96862   0.63902   0.50495   0.00000  Uiso   1.00
O177   O     0.24705   0.16526   0.49384   0.00000  Uiso   1.00
O178   O     0.96113   0.40460   0.90059   0.00000  Uiso   1.00
N179   N     0.86461   0.64951   0.44564   0.00000  Uiso   1.00
N180   N     0.35040   0.31190   0.43775   0.00000  Uiso   1.00
N181   N     0.85923   0.48244   0.01499   0.00000  Uiso   1.00
N182   N     0.93303   0.49289   0.44628   0.00000  Uiso   1.00
N183   N     0.41882   0.15528   0.43839   0.00000  Uiso   1.00
N184   N     0.92765   0.32582   0.01563   0.00000  Uiso   1.00
