data_job_06424
_audit_creation_date              2018-12-19
_audit_creation_method            'Materials Studio'
_symmetry_space_group_name_H-M    'P1'
_symmetry_Int_Tables_number       1
_symmetry_cell_setting            triclinic
loop_
_symmetry_equiv_pos_as_xyz
  x,y,z
_cell_length_a                    17.7374
_cell_length_b                    16.4024
_cell_length_c                    16.1255
_cell_angle_alpha                 103.3810
_cell_angle_beta                  101.1530
_cell_angle_gamma                 101.8360
loop_
_atom_site_label
_atom_site_type_symbol
_atom_site_fract_x
_atom_site_fract_y
_atom_site_fract_z
_atom_site_U_iso_or_equiv
_atom_site_adp_type
_atom_site_occupancy
C1     C     0.49035   0.19844   0.04555   0.00000  Uiso   1.00
C2     C     0.51440   0.20001   0.96000   0.00000  Uiso   1.00
C3     C     0.58694   0.19192   0.94376   0.00000  Uiso   1.00
C4     C     0.59739   0.19502   0.86131   0.00000  Uiso   1.00
C5     C     0.64389   0.19586   0.73820   0.00000  Uiso   1.00
C6     C     0.46727   0.28297   0.07586   0.00000  Uiso   1.00
C7     C     0.50016   0.34462   0.15703   0.00000  Uiso   1.00
C8     C     0.47093   0.41756   0.17211   0.00000  Uiso   1.00
C9     C     0.44420   0.54716   0.22890   0.00000  Uiso   1.00
C10    C     0.41370   0.12599   0.02024   0.00000  Uiso   1.00
C11    C     0.40155   0.05566   0.05466   0.00000  Uiso   1.00
C12    C     0.32720   0.99643   0.02293   0.00000  Uiso   1.00
C13    C     0.21730   0.88229   0.99336   0.00000  Uiso   1.00
C14    C     0.37992   0.21834   0.92801   0.00000  Uiso   1.00
C15    C     0.45443   0.21082   0.89616   0.00000  Uiso   1.00
C16    C     0.46477   0.21393   0.81371   0.00000  Uiso   1.00
C17    C     0.53731   0.20584   0.79734   0.00000  Uiso   1.00
C18    C     0.40729   0.29378   0.01202   0.00000  Uiso   1.00
C19    C     0.37799   0.36664   0.02698   0.00000  Uiso   1.00
C20    C     0.41084   0.42838   0.10815   0.00000  Uiso   1.00
C21    C     0.35372   0.13679   0.95640   0.00000  Uiso   1.00
C22    C     0.27938   0.07767   0.92461   0.00000  Uiso   1.00
C23    C     0.26712   0.00726   0.95897   0.00000  Uiso   1.00
H24    H     0.53704   0.19003   0.09526   0.00000  Uiso   1.00
H25    H     0.63334   0.18357   0.99319   0.00000  Uiso   1.00
H26    H     0.54657   0.33624   0.20643   0.00000  Uiso   1.00
H27    H     0.44797   0.04732   0.10407   0.00000  Uiso   1.00
H28    H     0.71367   0.18119   0.85188   0.00000  Uiso   1.00
H29    H     0.53069   0.50310   0.30151   0.00000  Uiso   1.00
H30    H     0.32278   0.89385   0.08568   0.00000  Uiso   1.00
H31    H     0.33323   0.22675   0.87830   0.00000  Uiso   1.00
H32    H     0.41834   0.22230   0.76432   0.00000  Uiso   1.00
H33    H     0.33158   0.37497   0.97756   0.00000  Uiso   1.00
H34    H     0.23298   0.08605   0.87520   0.00000  Uiso   1.00
H35    H     0.53918   0.21263   0.66612   0.00000  Uiso   1.00
H36    H     0.35619   0.53454   0.11576   0.00000  Uiso   1.00
H37    H     0.14828   0.92529   0.89992   0.00000  Uiso   1.00
O38    O     0.68610   0.19335   0.68794   0.00000  Uiso   1.00
O39    O     0.44603   0.61567   0.27786   0.00000  Uiso   1.00
O40    O     0.17326   0.81634   0.99468   0.00000  Uiso   1.00
N41    N     0.66092   0.18919   0.82379   0.00000  Uiso   1.00
N42    N     0.48985   0.49016   0.24418   0.00000  Uiso   1.00
N43    N     0.29546   0.92057   0.04240   0.00000  Uiso   1.00
N44    N     0.56702   0.20610   0.72384   0.00000  Uiso   1.00
N45    N     0.39595   0.50707   0.14422   0.00000  Uiso   1.00
N46    N     0.20156   0.93748   0.94245   0.00000  Uiso   1.00
C47    C     0.03904   0.48816   0.19601   0.00000  Uiso   1.00
C48    C     0.96420   0.51840   0.20328   0.00000  Uiso   1.00
C49    C     0.95358   0.59900   0.19916   0.00000  Uiso   1.00
C50    C     0.88077   0.61411   0.20722   0.00000  Uiso   1.00
C51    C     0.77369   0.67070   0.21677   0.00000  Uiso   1.00
C52    C     0.06493   0.46148   0.27937   0.00000  Uiso   1.00
C53    C     0.13901   0.49422   0.33921   0.00000  Uiso   1.00
C54    C     0.15099   0.46141   0.41132   0.00000  Uiso   1.00
C55    C     0.20031   0.42958   0.53896   0.00000  Uiso   1.00
C56    C     0.01234   0.40478   0.12021   0.00000  Uiso   1.00
C57    C     0.04221   0.38984   0.04624   0.00000  Uiso   1.00
C58    C     0.00992   0.30929   0.98436   0.00000  Uiso   1.00
C59    C     0.97759   0.18943   0.86489   0.00000  Uiso   1.00
C60    C     0.92862   0.37166   0.21765   0.00000  Uiso   1.00
C61    C     0.90422   0.45512   0.21504   0.00000  Uiso   1.00
C62    C     0.83140   0.47011   0.22311   0.00000  Uiso   1.00
C63    C     0.82068   0.55072   0.21899   0.00000  Uiso   1.00
C64    C     0.00495   0.39820   0.29113   0.00000  Uiso   1.00
C65    C     0.01683   0.36533   0.36316   0.00000  Uiso   1.00
C66    C     0.09090   0.39802   0.42310   0.00000  Uiso   1.00
C67    C     0.95236   0.34150   0.13197   0.00000  Uiso   1.00
C68    C     0.92003   0.26095   0.07019   0.00000  Uiso   1.00
C69    C     0.94984   0.24589   0.99614   0.00000  Uiso   1.00
H70    H     0.08574   0.53743   0.18686   0.00000  Uiso   1.00
H71    H     0.00002   0.64796   0.19007   0.00000  Uiso   1.00
H72    H     0.18541   0.54319   0.33009   0.00000  Uiso   1.00
H73    H     0.08862   0.43883   0.03717   0.00000  Uiso   1.00
H74    H     0.87853   0.74261   0.19884   0.00000  Uiso   1.00
H75    H     0.26945   0.52167   0.49408   0.00000  Uiso   1.00
H76    H     0.06536   0.30160   0.87639   0.00000  Uiso   1.00
H77    H     0.88192   0.32239   0.22681   0.00000  Uiso   1.00
H78    H     0.78500   0.42113   0.23220   0.00000  Uiso   1.00
H79    H     0.97040   0.31636   0.37223   0.00000  Uiso   1.00
H80    H     0.87361   0.21200   0.07931   0.00000  Uiso   1.00
H81    H     0.70402   0.55850   0.23305   0.00000  Uiso   1.00
H82    H     0.09495   0.33756   0.52828   0.00000  Uiso   1.00
H83    H     0.89085   0.11750   0.91059   0.00000  Uiso   1.00
O84    O     0.73121   0.71939   0.21880   0.00000  Uiso   1.00
O85    O     0.24409   0.42952   0.60613   0.00000  Uiso   1.00
O86    O     0.97632   0.14081   0.79574   0.00000  Uiso   1.00
N87    N     0.85075   0.68572   0.20613   0.00000  Uiso   1.00
N88    N     0.21624   0.47917   0.48217   0.00000  Uiso   1.00
N89    N     0.02544   0.27342   0.90469   0.00000  Uiso   1.00
N90    N     0.75685   0.58666   0.22454   0.00000  Uiso   1.00
N91    N     0.12234   0.38010   0.50057   0.00000  Uiso   1.00
N92    N     0.93154   0.17436   0.92310   0.00000  Uiso   1.00
C93    C     0.19390   0.04250   0.48818   0.00000  Uiso   1.00
C94    C     0.19645   0.95976   0.51522   0.00000  Uiso   1.00
C95    C     0.19235   0.94830   0.59700   0.00000  Uiso   1.00
C96    C     0.19568   0.86775   0.60869   0.00000  Uiso   1.00
C97    C     0.19858   0.74942   0.66098   0.00000  Uiso   1.00
C98    C     0.26941   0.06736   0.45770   0.00000  Uiso   1.00
C99    C     0.32665   0.14638   0.49110   0.00000  Uiso   1.00
C100   C     0.39140   0.15641   0.45437   0.00000  Uiso   1.00
C101   C     0.50755   0.20516   0.41731   0.00000  Uiso   1.00
C102   C     0.12490   0.01632   0.40622   0.00000  Uiso   1.00
C103   C     0.06064   0.05244   0.39633   0.00000  Uiso   1.00
C104   C     0.00372   0.01952   0.31623   0.00000  Uiso   1.00
C105   C     0.89550   0.98902   0.19925   0.00000  Uiso   1.00
C106   C     0.20711   0.91983   0.36353   0.00000  Uiso   1.00
C107   C     0.20363   0.89313   0.44751   0.00000  Uiso   1.00
C108   C     0.20696   0.81257   0.45908   0.00000  Uiso   1.00
C109   C     0.20286   0.80100   0.54086   0.00000  Uiso   1.00
C110   C     0.27659   0.00073   0.38999   0.00000  Uiso   1.00
C111   C     0.34126   0.01065   0.35319   0.00000  Uiso   1.00
C112   C     0.39859   0.08966   0.38654   0.00000  Uiso   1.00
C113   C     0.13207   0.94969   0.33851   0.00000  Uiso   1.00
C114   C     0.07525   0.91671   0.25841   0.00000  Uiso   1.00
C115   C     0.01091   0.95277   0.24841   0.00000  Uiso   1.00
H116   H     0.18832   0.09438   0.54089   0.00000  Uiso   1.00
H117   H     0.18680   0.99988   0.64938   0.00000  Uiso   1.00
H118   H     0.32108   0.19793   0.54349   0.00000  Uiso   1.00
H119   H     0.05511   0.10400   0.44873   0.00000  Uiso   1.00
H120   H     0.18831   0.86574   0.73981   0.00000  Uiso   1.00
H121   H     0.47143   0.28334   0.51652   0.00000  Uiso   1.00
H122   H     0.91058   0.08529   0.31670   0.00000  Uiso   1.00
H123   H     0.21270   0.86795   0.31081   0.00000  Uiso   1.00
H124   H     0.21251   0.76102   0.40668   0.00000  Uiso   1.00
H125   H     0.34679   0.95908   0.30079   0.00000  Uiso   1.00
H126   H     0.08082   0.86515   0.20603   0.00000  Uiso   1.00
H127   H     0.20919   0.67188   0.54282   0.00000  Uiso   1.00
H128   H     0.49230   0.08949   0.31954   0.00000  Uiso   1.00
H129   H     0.93145   0.89142   0.11972   0.00000  Uiso   1.00
O130   O     0.19822   0.70256   0.70854   0.00000  Uiso   1.00
O131   O     0.56964   0.25045   0.41559   0.00000  Uiso   1.00
O132   O     0.83382   0.99060   0.15343   0.00000  Uiso   1.00
N133   N     0.19323   0.83478   0.68029   0.00000  Uiso   1.00
N134   N     0.45794   0.22521   0.47154   0.00000  Uiso   1.00
N135   N     0.93360   0.04006   0.28471   0.00000  Uiso   1.00
N136   N     0.20446   0.73046   0.57429   0.00000  Uiso   1.00
N137   N     0.46917   0.12090   0.36554   0.00000  Uiso   1.00
N138   N     0.94483   0.93575   0.17872   0.00000  Uiso   1.00
C139   C     0.99038   0.54479   0.69891   0.00000  Uiso   1.00
C140   C     0.01426   0.46093   0.70076   0.00000  Uiso   1.00
C141   C     0.08678   0.44545   0.69207   0.00000  Uiso   1.00
C142   C     0.09705   0.36454   0.69557   0.00000  Uiso   1.00
C143   C     0.14329   0.24394   0.69670   0.00000  Uiso   1.00
C144   C     0.96719   0.57483   0.78497   0.00000  Uiso   1.00
C145   C     0.00012   0.65512   0.84707   0.00000  Uiso   1.00
C146   C     0.97076   0.67008   0.92144   0.00000  Uiso   1.00
C147   C     0.94388   0.72634   0.05328   0.00000  Uiso   1.00
C148   C     0.91384   0.51901   0.62585   0.00000  Uiso   1.00
C149   C     0.90190   0.55238   0.55418   0.00000  Uiso   1.00
C150   C     0.82762   0.52037   0.49460   0.00000  Uiso   1.00
C151   C     0.71790   0.48995   0.37938   0.00000  Uiso   1.00
C152   C     0.87967   0.42862   0.72057   0.00000  Uiso   1.00
C153   C     0.95412   0.39783   0.71253   0.00000  Uiso   1.00
C154   C     0.96429   0.31692   0.71604   0.00000  Uiso   1.00
C155   C     0.03681   0.30132   0.70735   0.00000  Uiso   1.00
C156   C     0.90706   0.51173   0.79674   0.00000  Uiso   1.00
C157   C     0.87764   0.52658   0.87103   0.00000  Uiso   1.00
C158   C     0.91052   0.60687   0.93323   0.00000  Uiso   1.00
C159   C     0.85370   0.45591   0.63762   0.00000  Uiso   1.00
C160   C     0.77942   0.42384   0.57814   0.00000  Uiso   1.00
C161   C     0.76737   0.45716   0.50639   0.00000  Uiso   1.00
H162   H     0.03720   0.59392   0.68975   0.00000  Uiso   1.00
H163   H     0.13330   0.49430   0.68298   0.00000  Uiso   1.00
H164   H     0.04665   0.70394   0.83794   0.00000  Uiso   1.00
H165   H     0.94845   0.60121   0.54509   0.00000  Uiso   1.00
H166   H     0.21335   0.35604   0.68068   0.00000  Uiso   1.00
H167   H     0.03062   0.79808   0.00742   0.00000  Uiso   1.00
H168   H     0.82354   0.58147   0.38990   0.00000  Uiso   1.00
H169   H     0.83285   0.37949   0.72973   0.00000  Uiso   1.00
H170   H     0.91774   0.26810   0.72514   0.00000  Uiso   1.00
H171   H     0.83110   0.47774   0.88011   0.00000  Uiso   1.00
H172   H     0.73289   0.37501   0.58727   0.00000  Uiso   1.00
H173   H     0.03839   0.17245   0.71491   0.00000  Uiso   1.00
H174   H     0.85566   0.61449   0.04165   0.00000  Uiso   1.00
H175   H     0.64859   0.39787   0.42413   0.00000  Uiso   1.00
O176   O     0.18541   0.19485   0.69409   0.00000  Uiso   1.00
O177   O     0.94567   0.77479   0.12275   0.00000  Uiso   1.00
O178   O     0.67399   0.49060   0.31257   0.00000  Uiso   1.00
N179   N     0.16051   0.32811   0.68935   0.00000  Uiso   1.00
N180   N     0.98969   0.74139   0.99484   0.00000  Uiso   1.00
N181   N     0.79608   0.53889   0.41752   0.00000  Uiso   1.00
N182   N     0.06637   0.22932   0.70777   0.00000  Uiso   1.00
N183   N     0.89554   0.64260   0.01326   0.00000  Uiso   1.00
N184   N     0.70193   0.44010   0.43594   0.00000  Uiso   1.00
C185   C     0.53909   0.69562   0.98761   0.00000  Uiso   1.00
C186   C     0.46419   0.70238   0.01890   0.00000  Uiso   1.00
C187   C     0.45339   0.69866   0.10105   0.00000  Uiso   1.00
C188   C     0.38057   0.70613   0.11693   0.00000  Uiso   1.00
C189   C     0.27339   0.71502   0.17526   0.00000  Uiso   1.00
C190   C     0.56520   0.77757   0.95984   0.00000  Uiso   1.00
C191   C     0.63933   0.83706   0.99232   0.00000  Uiso   1.00
C192   C     0.65154   0.90782   0.95847   0.00000  Uiso   1.00
C193   C     0.70120   0.03341   0.92506   0.00000  Uiso   1.00
C194   C     0.51240   0.62055   0.90332   0.00000  Uiso   1.00
C195   C     0.54214   0.54801   0.88827   0.00000  Uiso   1.00
C196   C     0.50990   0.48658   0.80682   0.00000  Uiso   1.00
C197   C     0.47757   0.36837   0.68567   0.00000  Uiso   1.00
C198   C     0.42895   0.71550   0.86973   0.00000  Uiso   1.00
C199   C     0.40437   0.71318   0.95487   0.00000  Uiso   1.00
C200   C     0.33154   0.72065   0.97063   0.00000  Uiso   1.00
C201   C     0.32063   0.71694   0.05278   0.00000  Uiso   1.00
C202   C     0.50538   0.78837   0.89581   0.00000  Uiso   1.00
C203   C     0.51748   0.85905   0.86190   0.00000  Uiso   1.00
C204   C     0.59161   0.91864   0.89432   0.00000  Uiso   1.00
C205   C     0.45257   0.63134   0.83929   0.00000  Uiso   1.00
C206   C     0.42028   0.57001   0.75785   0.00000  Uiso   1.00
C207   C     0.44997   0.49740   0.74268   0.00000  Uiso   1.00
H208   H     0.58566   0.68722   0.03746   0.00000  Uiso   1.00
H209   H     0.49971   0.69031   0.15058   0.00000  Uiso   1.00
H210   H     0.68562   0.82868   0.04186   0.00000  Uiso   1.00
H211   H     0.58844   0.53968   0.93783   0.00000  Uiso   1.00
H212   H     0.37804   0.69853   0.24778   0.00000  Uiso   1.00
H213   H     0.77005   0.99028   0.01851   0.00000  Uiso   1.00
H214   H     0.56513   0.38087   0.79914   0.00000  Uiso   1.00
H215   H     0.38237   0.72391   0.81988   0.00000  Uiso   1.00
H216   H     0.28526   0.72901   0.92107   0.00000  Uiso   1.00
H217   H     0.47117   0.86739   0.81235   0.00000  Uiso   1.00
H218   H     0.37399   0.57839   0.70832   0.00000  Uiso   1.00
H219   H     0.20398   0.72995   0.06150   0.00000  Uiso   1.00
H220   H     0.59600   0.02170   0.83223   0.00000  Uiso   1.00
H221   H     0.39107   0.41229   0.61286   0.00000  Uiso   1.00
O222   O     0.23080   0.71696   0.22513   0.00000  Uiso   1.00
O223   O     0.74511   0.09971   0.92434   0.00000  Uiso   1.00
O224   O     0.47626   0.30018   0.63653   0.00000  Uiso   1.00
N225   N     0.35040   0.70520   0.19004   0.00000  Uiso   1.00
N226   N     0.71690   0.97798   0.97570   0.00000  Uiso   1.00
N227   N     0.52533   0.40824   0.77060   0.00000  Uiso   1.00
N228   N     0.25674   0.72211   0.08980   0.00000  Uiso   1.00
N229   N     0.62324   0.99489   0.87547   0.00000  Uiso   1.00
N230   N     0.43167   0.42515   0.67037   0.00000  Uiso   1.00
C231   C     0.69382   0.98870   0.54322   0.00000  Uiso   1.00
C232   C     0.69660   0.01486   0.45884   0.00000  Uiso   1.00
C233   C     0.69269   0.09511   0.44679   0.00000  Uiso   1.00
C234   C     0.69622   0.10622   0.36472   0.00000  Uiso   1.00
C235   C     0.69949   0.15702   0.24399   0.00000  Uiso   1.00
C236   C     0.76922   0.95941   0.56812   0.00000  Uiso   1.00
C237   C     0.82636   0.99305   0.64796   0.00000  Uiso   1.00
C238   C     0.89101   0.95747   0.65788   0.00000  Uiso   1.00
C239   C     0.00698   0.92215   0.70683   0.00000  Uiso   1.00
C240   C     0.62470   0.90754   0.51750   0.00000  Uiso   1.00
C241   C     0.56034   0.89754   0.55479   0.00000  Uiso   1.00
C242   C     0.50333   0.81828   0.52210   0.00000  Uiso   1.00
C243   C     0.39493   0.70242   0.49245   0.00000  Uiso   1.00
C244   C     0.70703   0.86571   0.41889   0.00000  Uiso   1.00
C245   C     0.70378   0.94805   0.39131   0.00000  Uiso   1.00
C246   C     0.70731   0.95904   0.30923   0.00000  Uiso   1.00
C247   C     0.70340   0.03930   0.29707   0.00000  Uiso   1.00
C248   C     0.77639   0.89262   0.50059   0.00000  Uiso   1.00
C249   C     0.84097   0.85698   0.51040   0.00000  Uiso   1.00
C250   C     0.89820   0.89055   0.59023   0.00000  Uiso   1.00
C251   C     0.63188   0.84074   0.44996   0.00000  Uiso   1.00
C252   C     0.57496   0.76148   0.41722   0.00000  Uiso   1.00
C253   C     0.51052   0.75136   0.45445   0.00000  Uiso   1.00
H254   H     0.68824   0.04070   0.59580   0.00000  Uiso   1.00
H255   H     0.68715   0.14679   0.49908   0.00000  Uiso   1.00
H256   H     0.82079   0.04474   0.70021   0.00000  Uiso   1.00
H257   H     0.55481   0.94925   0.60704   0.00000  Uiso   1.00
H258   H     0.68913   0.23497   0.36207   0.00000  Uiso   1.00
H259   H     0.97090   0.01976   0.78618   0.00000  Uiso   1.00
H260   H     0.41004   0.81840   0.58973   0.00000  Uiso   1.00
H261   H     0.71262   0.81370   0.36631   0.00000  Uiso   1.00
H262   H     0.71286   0.90734   0.25699   0.00000  Uiso   1.00
H263   H     0.84650   0.80528   0.45813   0.00000  Uiso   1.00
H264   H     0.58053   0.70980   0.36496   0.00000  Uiso   1.00
H265   H     0.71001   0.04062   0.16558   0.00000  Uiso   1.00
H266   H     0.99177   0.82540   0.58970   0.00000  Uiso   1.00
H267   H     0.43092   0.62405   0.39324   0.00000  Uiso   1.00
O268   O     0.69932   0.20349   0.19606   0.00000  Uiso   1.00
O269   O     0.06898   0.92113   0.75249   0.00000  Uiso   1.00
O270   O     0.33315   0.65697   0.49474   0.00000  Uiso   1.00
N271   N     0.69399   0.17637   0.33082   0.00000  Uiso   1.00
N272   N     0.95744   0.97517   0.72734   0.00000  Uiso   1.00
N273   N     0.43310   0.78691   0.54369   0.00000  Uiso   1.00
N274   N     0.70523   0.07179   0.22509   0.00000  Uiso   1.00
N275   N     0.96867   0.87059   0.62161   0.00000  Uiso   1.00
N276   N     0.44433   0.68234   0.43796   0.00000  Uiso   1.00
