data_job_06978
_audit_creation_date              2018-12-19
_audit_creation_method            'Materials Studio'
_symmetry_space_group_name_H-M    'P1'
_symmetry_Int_Tables_number       1
_symmetry_cell_setting            triclinic
loop_
_symmetry_equiv_pos_as_xyz
  x,y,z
_cell_length_a                    22.4992
_cell_length_b                    22.9412
_cell_length_c                    24.1307
_cell_angle_alpha                 70.2651
_cell_angle_beta                  110.1480
_cell_angle_gamma                 74.9769
loop_
_atom_site_label
_atom_site_type_symbol
_atom_site_fract_x
_atom_site_fract_y
_atom_site_fract_z
_atom_site_U_iso_or_equiv
_atom_site_adp_type
_atom_site_occupancy
C1     C     0.05843   0.65749   0.70538   0.00000  Uiso   1.00
C2     C     0.06442   0.60283   0.68251   0.00000  Uiso   1.00
C3     C     0.00913   0.59862   0.63790   0.00000  Uiso   1.00
C4     C     0.02547   0.54477   0.62342   0.00000  Uiso   1.00
C5     C     0.02424   0.46717   0.58351   0.00000  Uiso   1.00
C6     C     0.09288   0.61917   0.78154   0.00000  Uiso   1.00
C7     C     0.06152   0.62869   0.82019   0.00000  Uiso   1.00
C8     C     0.10184   0.58860   0.88907   0.00000  Uiso   1.00
C9     C     0.14481   0.53640   0.00290   0.00000  Uiso   1.00
C10    C     0.10527   0.69007   0.68883   0.00000  Uiso   1.00
C11    C     0.08433   0.75921   0.64954   0.00000  Uiso   1.00
C12    C     0.13508   0.77881   0.64038   0.00000  Uiso   1.00
C13    C     0.19729   0.83669   0.61027   0.00000  Uiso   1.00
C14    C     0.18578   0.56937   0.75899   0.00000  Uiso   1.00
C15    C     0.13359   0.55497   0.71163   0.00000  Uiso   1.00
C16    C     0.15002   0.50112   0.69721   0.00000  Uiso   1.00
C17    C     0.09477   0.49683   0.65259   0.00000  Uiso   1.00
C18    C     0.16205   0.57130   0.81066   0.00000  Uiso   1.00
C19    C     0.20242   0.53120   0.87950   0.00000  Uiso   1.00
C20    C     0.17113   0.54065   0.91824   0.00000  Uiso   1.00
C21    C     0.17444   0.64220   0.71795   0.00000  Uiso   1.00
C22    C     0.22523   0.66171   0.70885   0.00000  Uiso   1.00
C23    C     0.20438   0.73086   0.66955   0.00000  Uiso   1.00
H24    H     0.00458   0.69475   0.68272   0.00000  Uiso   1.00
H25    H     0.95560   0.63566   0.61538   0.00000  Uiso   1.00
H26    H     0.00800   0.66574   0.79764   0.00000  Uiso   1.00
H27    H     0.03080   0.79623   0.62702   0.00000  Uiso   1.00
H28    H     0.93180   0.54903   0.55359   0.00000  Uiso   1.00
H29    H     0.04229   0.61247   0.93789   0.00000  Uiso   1.00
H30    H     0.09038   0.88764   0.57811   0.00000  Uiso   1.00
H31    H     0.23964   0.53210   0.78166   0.00000  Uiso   1.00
H32    H     0.20356   0.46409   0.71975   0.00000  Uiso   1.00
H33    H     0.25595   0.49417   0.90201   0.00000  Uiso   1.00
H34    H     0.27876   0.62466   0.73139   0.00000  Uiso   1.00
H35    H     0.13305   0.40978   0.63831   0.00000  Uiso   1.00
H36    H     0.24353   0.47321   0.02261   0.00000  Uiso   1.00
H37    H     0.29163   0.74838   0.66282   0.00000  Uiso   1.00
O38    O     0.00445   0.43759   0.55346   0.00000  Uiso   1.00
O39    O     0.14940   0.52082   0.05764   0.00000  Uiso   1.00
O40    O     0.21249   0.88183   0.58561   0.00000  Uiso   1.00
N41    N     0.98412   0.52560   0.58202   0.00000  Uiso   1.00
N42    N     0.08741   0.58490   0.94131   0.00000  Uiso   1.00
N43    N     0.13238   0.84216   0.60496   0.00000  Uiso   1.00
N44    N     0.09241   0.45067   0.62760   0.00000  Uiso   1.00
N45    N     0.19570   0.50997   0.98689   0.00000  Uiso   1.00
N46    N     0.24067   0.76723   0.65054   0.00000  Uiso   1.00
C47    C     0.63389   0.68523   0.92945   0.00000  Uiso   1.00
C48    C     0.60307   0.63604   0.91751   0.00000  Uiso   1.00
C49    C     0.60115   0.58338   0.96568   0.00000  Uiso   1.00
C50    C     0.57071   0.54408   0.94472   0.00000  Uiso   1.00
C51    C     0.52706   0.46570   0.93633   0.00000  Uiso   1.00
C52    C     0.68860   0.67903   0.90547   0.00000  Uiso   1.00
C53    C     0.75858   0.66253   0.94352   0.00000  Uiso   1.00
C54    C     0.80014   0.65942   0.91241   0.00000  Uiso   1.00
C55    C     0.88926   0.64784   0.88532   0.00000  Uiso   1.00
C56    C     0.57532   0.75696   0.88115   0.00000  Uiso   1.00
C57    C     0.55007   0.80599   0.89876   0.00000  Uiso   1.00
C58    C     0.49627   0.86850   0.84718   0.00000  Uiso   1.00
C59    C     0.40951   0.97791   0.78234   0.00000  Uiso   1.00
C60    C     0.58325   0.70907   0.80654   0.00000  Uiso   1.00
C61    C     0.57556   0.64899   0.85075   0.00000  Uiso   1.00
C62    C     0.54512   0.60975   0.82970   0.00000  Uiso   1.00
C63    C     0.54315   0.55705   0.87784   0.00000  Uiso   1.00
C64    C     0.66109   0.69198   0.83871   0.00000  Uiso   1.00
C65    C     0.70255   0.68890   0.80754   0.00000  Uiso   1.00
C66    C     0.77258   0.67239   0.84553   0.00000  Uiso   1.00
C67    C     0.54781   0.76991   0.81439   0.00000  Uiso   1.00
C68    C     0.49404   0.83236   0.76277   0.00000  Uiso   1.00
C69    C     0.46871   0.88147   0.78030   0.00000  Uiso   1.00
H70    H     0.65532   0.67515   0.98143   0.00000  Uiso   1.00
H71    H     0.62245   0.57338   0.01735   0.00000  Uiso   1.00
H72    H     0.77985   0.65252   0.99518   0.00000  Uiso   1.00
H73    H     0.57138   0.79595   0.95043   0.00000  Uiso   1.00
H74    H     0.57390   0.46623   0.02773   0.00000  Uiso   1.00
H75    H     0.90579   0.63313   0.98099   0.00000  Uiso   1.00
H76    H     0.46618   0.93559   0.88662   0.00000  Uiso   1.00
H77    H     0.56183   0.71915   0.75456   0.00000  Uiso   1.00
H78    H     0.52383   0.61978   0.77803   0.00000  Uiso   1.00
H79    H     0.68124   0.69893   0.75587   0.00000  Uiso   1.00
H80    H     0.47276   0.84236   0.71112   0.00000  Uiso   1.00
H81    H     0.49387   0.50389   0.83349   0.00000  Uiso   1.00
H82    H     0.82576   0.67080   0.78676   0.00000  Uiso   1.00
H83    H     0.38614   0.97325   0.69238   0.00000  Uiso   1.00
O84    O     0.51059   0.41889   0.95015   0.00000  Uiso   1.00
O85    O     0.94602   0.63787   0.88883   0.00000  Uiso   1.00
O86    O     0.36925   0.03468   0.76501   0.00000  Uiso   1.00
N87    N     0.56027   0.48874   0.97879   0.00000  Uiso   1.00
N88    N     0.87057   0.64477   0.93510   0.00000  Uiso   1.00
N89    N     0.45958   0.92755   0.84687   0.00000  Uiso   1.00
N90    N     0.51720   0.50901   0.87428   0.00000  Uiso   1.00
N91    N     0.82750   0.66504   0.83058   0.00000  Uiso   1.00
N92    N     0.41651   0.94782   0.74235   0.00000  Uiso   1.00
C93    C     0.30495   0.35256   0.34977   0.00000  Uiso   1.00
C94    C     0.32382   0.27630   0.37567   0.00000  Uiso   1.00
C95    C     0.37490   0.23027   0.37254   0.00000  Uiso   1.00
C96    C     0.38418   0.16268   0.39901   0.00000  Uiso   1.00
C97    C     0.41960   0.04742   0.43486   0.00000  Uiso   1.00
C98    C     0.22690   0.38931   0.30049   0.00000  Uiso   1.00
C99    C     0.19650   0.43831   0.23414   0.00000  Uiso   1.00
C100   C     0.12418   0.46585   0.19732   0.00000  Uiso   1.00
C101   C     0.00913   0.52609   0.11646   0.00000  Uiso   1.00
C102   C     0.31317   0.36590   0.40917   0.00000  Uiso   1.00
C103   C     0.35528   0.39523   0.43419   0.00000  Uiso   1.00
C104   C     0.35559   0.40308   0.48887   0.00000  Uiso   1.00
C105   C     0.37448   0.42696   0.57674   0.00000  Uiso   1.00
C106   C     0.23060   0.31436   0.40234   0.00000  Uiso   1.00
C107   C     0.28344   0.25555   0.40423   0.00000  Uiso   1.00
C108   C     0.29264   0.18800   0.43071   0.00000  Uiso   1.00
C109   C     0.34372   0.14189   0.42762   0.00000  Uiso   1.00
C110   C     0.18652   0.36856   0.32904   0.00000  Uiso   1.00
C111   C     0.11423   0.39604   0.29231   0.00000  Uiso   1.00
C112   C     0.08372   0.44507   0.22593   0.00000  Uiso   1.00
C113   C     0.27279   0.34515   0.43773   0.00000  Uiso   1.00
C114   C     0.27302   0.35296   0.49237   0.00000  Uiso   1.00
C115   C     0.31513   0.38229   0.51747   0.00000  Uiso   1.00
H116   H     0.33639   0.36872   0.32753   0.00000  Uiso   1.00
H117   H     0.40614   0.24635   0.35043   0.00000  Uiso   1.00
H118   H     0.22776   0.45436   0.21206   0.00000  Uiso   1.00
H119   H     0.38653   0.41128   0.41208   0.00000  Uiso   1.00
H120   H     0.46564   0.10154   0.38839   0.00000  Uiso   1.00
H121   H     0.08952   0.54015   0.09663   0.00000  Uiso   1.00
H122   H     0.42431   0.44932   0.51842   0.00000  Uiso   1.00
H123   H     0.19916   0.29820   0.42458   0.00000  Uiso   1.00
H124   H     0.26138   0.17196   0.45281   0.00000  Uiso   1.00
H125   H     0.08300   0.37997   0.31443   0.00000  Uiso   1.00
H126   H     0.24176   0.33690   0.51445   0.00000  Uiso   1.00
H127   H     0.34815   0.04116   0.47148   0.00000  Uiso   1.00
H128   H     0.97202   0.47978   0.17972   0.00000  Uiso   1.00
H129   H     0.30681   0.38894   0.60151   0.00000  Uiso   1.00
O130   O     0.45029   0.98958   0.44673   0.00000  Uiso   1.00
O131   O     0.95683   0.56504   0.06396   0.00000  Uiso   1.00
O132   O     0.39606   0.44586   0.61733   0.00000  Uiso   1.00
N133   N     0.42946   0.10465   0.40408   0.00000  Uiso   1.00
N134   N     0.07781   0.51472   0.13130   0.00000  Uiso   1.00
N135   N     0.39079   0.42982   0.52563   0.00000  Uiso   1.00
N136   N     0.36624   0.07216   0.44879   0.00000  Uiso   1.00
N137   N     0.01459   0.48224   0.17601   0.00000  Uiso   1.00
N138   N     0.32757   0.39733   0.57034   0.00000  Uiso   1.00
C139   C     0.35382   0.85532   0.29959   0.00000  Uiso   1.00
C140   C     0.38118   0.77895   0.32101   0.00000  Uiso   1.00
C141   C     0.37146   0.73138   0.36655   0.00000  Uiso   1.00
C142   C     0.40061   0.66398   0.37941   0.00000  Uiso   1.00
C143   C     0.43734   0.54831   0.41744   0.00000  Uiso   1.00
C144   C     0.31001   0.89174   0.22360   0.00000  Uiso   1.00
C145   C     0.24046   0.93900   0.18725   0.00000  Uiso   1.00
C146   C     0.20970   0.96654   0.11811   0.00000  Uiso   1.00
C147   C     0.13596   0.02600   0.00492   0.00000  Uiso   1.00
C148   C     0.41760   0.87121   0.31431   0.00000  Uiso   1.00
C149   C     0.43850   0.90122   0.35421   0.00000  Uiso   1.00
C150   C     0.49832   0.91149   0.36143   0.00000  Uiso   1.00
C151   C     0.59163   0.93908   0.38907   0.00000  Uiso   1.00
C152   C     0.42287   0.82021   0.24144   0.00000  Uiso   1.00
C153   C     0.41868   0.75989   0.28942   0.00000  Uiso   1.00
C154   C     0.44785   0.69254   0.30221   0.00000  Uiso   1.00
C155   C     0.43818   0.64487   0.34776   0.00000  Uiso   1.00
C156   C     0.34751   0.87267   0.19201   0.00000  Uiso   1.00
C157   C     0.31685   0.90015   0.12291   0.00000  Uiso   1.00
C158   C     0.24727   0.94743   0.08646   0.00000  Uiso   1.00
C159   C     0.45510   0.85214   0.28272   0.00000  Uiso   1.00
C160   C     0.51489   0.86237   0.28987   0.00000  Uiso   1.00
C161   C     0.53589   0.89239   0.32978   0.00000  Uiso   1.00
H162   H     0.32462   0.87017   0.32418   0.00000  Uiso   1.00
H163   H     0.34243   0.74616   0.39098   0.00000  Uiso   1.00
H164   H     0.21145   0.95375   0.21171   0.00000  Uiso   1.00
H165   H     0.40947   0.91597   0.37865   0.00000  Uiso   1.00
H166   H     0.37868   0.60027   0.45109   0.00000  Uiso   1.00
H167   H     0.10252   0.03799   0.07309   0.00000  Uiso   1.00
H168   H     0.52008   0.95834   0.42511   0.00000  Uiso   1.00
H169   H     0.45206   0.80536   0.21684   0.00000  Uiso   1.00
H170   H     0.47687   0.67779   0.27776   0.00000  Uiso   1.00
H171   H     0.34589   0.88538   0.09848   0.00000  Uiso   1.00
H172   H     0.54390   0.84761   0.26542   0.00000  Uiso   1.00
H173   H     0.48780   0.54478   0.35919   0.00000  Uiso   1.00
H174   H     0.21163   0.98251   0.98119   0.00000  Uiso   1.00
H175   H     0.62919   0.90285   0.33321   0.00000  Uiso   1.00
O176   O     0.44723   0.48978   0.44713   0.00000  Uiso   1.00
O177   O     0.08492   0.06407   0.95121   0.00000  Uiso   1.00
O178   O     0.63275   0.95956   0.41305   0.00000  Uiso   1.00
N179   N     0.40097   0.60471   0.42111   0.00000  Uiso   1.00
N180   N     0.14277   0.01395   0.06770   0.00000  Uiso   1.00
N181   N     0.53314   0.93950   0.39680   0.00000  Uiso   1.00
N182   N     0.45968   0.57486   0.37166   0.00000  Uiso   1.00
N183   N     0.20148   0.98410   0.01825   0.00000  Uiso   1.00
N184   N     0.59185   0.90964   0.34735   0.00000  Uiso   1.00
C185   C     0.69954   0.12006   0.06576   0.00000  Uiso   1.00
C186   C     0.67500   0.06445   0.06361   0.00000  Uiso   1.00
C187   C     0.62363   0.06925   0.00773   0.00000  Uiso   1.00
C188   C     0.60874   0.01276   0.01605   0.00000  Uiso   1.00
C189   C     0.56529   0.93540   0.00327   0.00000  Uiso   1.00
C190   C     0.77828   0.08754   0.09145   0.00000  Uiso   1.00
C191   C     0.81376   0.11177   0.05898   0.00000  Uiso   1.00
C192   C     0.88581   0.07472   0.09075   0.00000  Uiso   1.00
C193   C     0.00272   0.03324   0.12121   0.00000  Uiso   1.00
C194   C     0.68982   0.13359   0.12044   0.00000  Uiso   1.00
C195   C     0.65093   0.19654   0.11236   0.00000  Uiso   1.00
C196   C     0.64852   0.19827   0.16853   0.00000  Uiso   1.00
C197   C     0.62807   0.22828   0.24400   0.00000  Uiso   1.00
C198   C     0.76443   0.01121   0.17989   0.00000  Uiso   1.00
C199   C     0.71024   0.00533   0.12560   0.00000  Uiso   1.00
C200   C     0.69542   0.94882   0.13401   0.00000  Uiso   1.00
C201   C     0.64404   0.95354   0.07816   0.00000  Uiso   1.00
C202   C     0.81353   0.02842   0.15344   0.00000  Uiso   1.00
C203   C     0.88555   0.99134   0.18526   0.00000  Uiso   1.00
C204   C     0.92112   0.01549   0.15285   0.00000  Uiso   1.00
C205   C     0.72506   0.07447   0.18243   0.00000  Uiso   1.00
C206   C     0.72272   0.07611   0.23863   0.00000  Uiso   1.00
C207   C     0.68383   0.13904   0.23063   0.00000  Uiso   1.00
H208   H     0.67211   0.16609   0.01750   0.00000  Uiso   1.00
H209   H     0.59637   0.11501   0.95977   0.00000  Uiso   1.00
H210   H     0.78647   0.15752   0.01101   0.00000  Uiso   1.00
H211   H     0.62366   0.24228   0.06438   0.00000  Uiso   1.00
H212   H     0.52797   0.03230   0.92309   0.00000  Uiso   1.00
H213   H     0.92880   0.12195   0.03116   0.00000  Uiso   1.00
H214   H     0.58549   0.30068   0.14369   0.00000  Uiso   1.00
H215   H     0.79187   0.96518   0.22816   0.00000  Uiso   1.00
H216   H     0.72270   0.90308   0.18199   0.00000  Uiso   1.00
H217   H     0.91280   0.94559   0.23323   0.00000  Uiso   1.00
H218   H     0.75000   0.03034   0.28659   0.00000  Uiso   1.00
H219   H     0.63050   0.86028   0.10345   0.00000  Uiso   1.00
H220   H     0.03134   0.94994   0.21152   0.00000  Uiso   1.00
H221   H     0.68803   0.12866   0.32405   0.00000  Uiso   1.00
O222   O     0.53159   0.90905   0.97909   0.00000  Uiso   1.00
O223   O     0.05747   0.02668   0.12088   0.00000  Uiso   1.00
O224   O     0.60705   0.26116   0.26851   0.00000  Uiso   1.00
N225   N     0.56158   0.00034   0.97188   0.00000  Uiso   1.00
N226   N     0.93634   0.08416   0.07291   0.00000  Uiso   1.00
N227   N     0.61539   0.25125   0.17812   0.00000  Uiso   1.00
N228   N     0.61675   0.90778   0.06893   0.00000  Uiso   1.00
N229   N     0.99151   0.99160   0.16996   0.00000  Uiso   1.00
N230   N     0.67056   0.15869   0.27517   0.00000  Uiso   1.00
C231   C     0.95485   0.20503   0.65557   0.00000  Uiso   1.00
C232   C     0.94768   0.15461   0.62849   0.00000  Uiso   1.00
C233   C     0.00179   0.10561   0.63150   0.00000  Uiso   1.00
C234   C     0.98448   0.06440   0.60388   0.00000  Uiso   1.00
C235   C     0.98384   0.98493   0.56636   0.00000  Uiso   1.00
C236   C     0.92502   0.19395   0.70426   0.00000  Uiso   1.00
C237   C     0.96009   0.17804   0.77097   0.00000  Uiso   1.00
C238   C     0.92370   0.16995   0.80713   0.00000  Uiso   1.00
C239   C     0.88787   0.15162   0.88723   0.00000  Uiso   1.00
C240   C     0.90483   0.27607   0.59669   0.00000  Uiso   1.00
C241   C     0.92291   0.32921   0.57296   0.00000  Uiso   1.00
C242   C     0.86952   0.39027   0.51855   0.00000  Uiso   1.00
C243   C     0.80234   0.49943   0.43163   0.00000  Uiso   1.00
C244   C     0.82786   0.21896   0.60117   0.00000  Uiso   1.00
C245   C     0.87870   0.16218   0.59894   0.00000  Uiso   1.00
C246   C     0.86130   0.12103   0.57131   0.00000  Uiso   1.00
C247   C     0.91539   0.07198   0.57427   0.00000  Uiso   1.00
C248   C     0.85605   0.20152   0.67471   0.00000  Uiso   1.00
C249   C     0.81960   0.19346   0.71078   0.00000  Uiso   1.00
C250   C     0.85460   0.17754   0.77753   0.00000  Uiso   1.00
C251   C     0.83585   0.28364   0.56713   0.00000  Uiso   1.00
C252   C     0.78242   0.34463   0.51276   0.00000  Uiso   1.00
C253   C     0.80042   0.39785   0.48895   0.00000  Uiso   1.00
H254   H     0.00854   0.19914   0.67858   0.00000  Uiso   1.00
H255   H     0.05517   0.09977   0.65438   0.00000  Uiso   1.00
H256   H     0.01346   0.17220   0.79382   0.00000  Uiso   1.00
H257   H     0.97629   0.32334   0.59584   0.00000  Uiso   1.00
H258   H     0.07644   0.99292   0.61453   0.00000  Uiso   1.00
H259   H     0.98850   0.14566   0.90856   0.00000  Uiso   1.00
H260   H     0.91012   0.46437   0.49107   0.00000  Uiso   1.00
H261   H     0.77416   0.22486   0.57816   0.00000  Uiso   1.00
H262   H     0.80792   0.12690   0.54845   0.00000  Uiso   1.00
H263   H     0.76622   0.19932   0.68790   0.00000  Uiso   1.00
H264   H     0.72905   0.35047   0.48991   0.00000  Uiso   1.00
H265   H     0.87577   0.01494   0.52856   0.00000  Uiso   1.00
H266   H     0.78783   0.16768   0.82259   0.00000  Uiso   1.00
H267   H     0.70945   0.48639   0.40509   0.00000  Uiso   1.00
O268   O     0.00255   0.93901   0.55383   0.00000  Uiso   1.00
O269   O     0.88717   0.13941   0.93958   0.00000  Uiso   1.00
O270   O     0.78434   0.55755   0.39184   0.00000  Uiso   1.00
N271   N     0.02458   0.01155   0.59836   0.00000  Uiso   1.00
N272   N     0.94236   0.15435   0.87327   0.00000  Uiso   1.00
N273   N     0.86908   0.45232   0.48296   0.00000  Uiso   1.00
N274   N     0.91660   0.02340   0.55210   0.00000  Uiso   1.00
N275   N     0.83438   0.16619   0.82701   0.00000  Uiso   1.00
N276   N     0.76110   0.46417   0.43669   0.00000  Uiso   1.00
C277   C     0.94157   0.34251   0.29462   0.00000  Uiso   1.00
C278   C     0.93558   0.39717   0.31749   0.00000  Uiso   1.00
C279   C     0.99087   0.40138   0.36210   0.00000  Uiso   1.00
C280   C     0.97453   0.45523   0.37658   0.00000  Uiso   1.00
C281   C     0.97576   0.53283   0.41649   0.00000  Uiso   1.00
C282   C     0.90712   0.38083   0.21846   0.00000  Uiso   1.00
C283   C     0.93848   0.37131   0.17981   0.00000  Uiso   1.00
C284   C     0.89816   0.41140   0.11093   0.00000  Uiso   1.00
C285   C     0.85519   0.46360   0.99710   0.00000  Uiso   1.00
C286   C     0.89473   0.30993   0.31117   0.00000  Uiso   1.00
C287   C     0.91567   0.24079   0.35046   0.00000  Uiso   1.00
C288   C     0.86492   0.22119   0.35962   0.00000  Uiso   1.00
C289   C     0.80271   0.16331   0.38973   0.00000  Uiso   1.00
C290   C     0.81422   0.43063   0.24101   0.00000  Uiso   1.00
C291   C     0.86641   0.44503   0.28837   0.00000  Uiso   1.00
C292   C     0.84998   0.49888   0.30279   0.00000  Uiso   1.00
C293   C     0.90523   0.50317   0.34741   0.00000  Uiso   1.00
C294   C     0.83795   0.42870   0.18934   0.00000  Uiso   1.00
C295   C     0.79758   0.46880   0.12050   0.00000  Uiso   1.00
C296   C     0.82887   0.45935   0.08176   0.00000  Uiso   1.00
C297   C     0.82556   0.35780   0.28205   0.00000  Uiso   1.00
C298   C     0.77477   0.33829   0.29115   0.00000  Uiso   1.00
C299   C     0.79562   0.26914   0.33045   0.00000  Uiso   1.00
H300   H     0.99542   0.30525   0.31728   0.00000  Uiso   1.00
H301   H     0.04440   0.36434   0.38462   0.00000  Uiso   1.00
H302   H     0.99200   0.33426   0.20236   0.00000  Uiso   1.00
H303   H     0.96920   0.20377   0.37298   0.00000  Uiso   1.00
H304   H     0.06820   0.45097   0.44641   0.00000  Uiso   1.00
H305   H     0.95771   0.38753   0.06211   0.00000  Uiso   1.00
H306   H     0.90962   0.11236   0.42189   0.00000  Uiso   1.00
H307   H     0.76036   0.46790   0.21834   0.00000  Uiso   1.00
H308   H     0.79644   0.53591   0.28025   0.00000  Uiso   1.00
H309   H     0.74405   0.50583   0.09799   0.00000  Uiso   1.00
H310   H     0.72124   0.37534   0.26861   0.00000  Uiso   1.00
H311   H     0.86695   0.59022   0.36169   0.00000  Uiso   1.00
H312   H     0.75647   0.52679   0.97739   0.00000  Uiso   1.00
H313   H     0.70837   0.25162   0.33718   0.00000  Uiso   1.00
O314   O     0.99555   0.56241   0.44654   0.00000  Uiso   1.00
O315   O     0.85060   0.47918   0.94236   0.00000  Uiso   1.00
O316   O     0.78751   0.11817   0.41439   0.00000  Uiso   1.00
N317   N     0.01588   0.47440   0.41798   0.00000  Uiso   1.00
N318   N     0.91259   0.41510   0.05869   0.00000  Uiso   1.00
N319   N     0.86762   0.15784   0.39504   0.00000  Uiso   1.00
N320   N     0.90759   0.54933   0.37240   0.00000  Uiso   1.00
N321   N     0.80430   0.49003   0.01311   0.00000  Uiso   1.00
N322   N     0.75933   0.23277   0.34946   0.00000  Uiso   1.00
C323   C     0.36611   0.31477   0.07055   0.00000  Uiso   1.00
C324   C     0.39693   0.36396   0.08249   0.00000  Uiso   1.00
C325   C     0.39885   0.41662   0.03432   0.00000  Uiso   1.00
C326   C     0.42929   0.45592   0.05528   0.00000  Uiso   1.00
C327   C     0.47294   0.53430   0.06367   0.00000  Uiso   1.00
C328   C     0.31140   0.32097   0.09453   0.00000  Uiso   1.00
C329   C     0.24142   0.33747   0.05648   0.00000  Uiso   1.00
C330   C     0.19986   0.34058   0.08759   0.00000  Uiso   1.00
C331   C     0.11074   0.35216   0.11468   0.00000  Uiso   1.00
C332   C     0.42468   0.24304   0.11885   0.00000  Uiso   1.00
C333   C     0.44993   0.19401   0.10124   0.00000  Uiso   1.00
C334   C     0.50373   0.13150   0.15282   0.00000  Uiso   1.00
C335   C     0.59049   0.02209   0.21766   0.00000  Uiso   1.00
C336   C     0.41675   0.29093   0.19346   0.00000  Uiso   1.00
C337   C     0.42444   0.35101   0.14925   0.00000  Uiso   1.00
C338   C     0.45488   0.39025   0.17030   0.00000  Uiso   1.00
C339   C     0.45685   0.44295   0.12216   0.00000  Uiso   1.00
C340   C     0.33891   0.30802   0.16129   0.00000  Uiso   1.00
C341   C     0.29745   0.31110   0.19246   0.00000  Uiso   1.00
C342   C     0.22742   0.32761   0.15447   0.00000  Uiso   1.00
C343   C     0.45219   0.23009   0.18561   0.00000  Uiso   1.00
C344   C     0.50596   0.16764   0.23723   0.00000  Uiso   1.00
C345   C     0.53129   0.11853   0.21970   0.00000  Uiso   1.00
H346   H     0.34468   0.32485   0.01857   0.00000  Uiso   1.00
H347   H     0.37755   0.42662   0.98265   0.00000  Uiso   1.00
H348   H     0.22015   0.34748   0.00482   0.00000  Uiso   1.00
H349   H     0.42862   0.20405   0.04957   0.00000  Uiso   1.00
H350   H     0.42610   0.53377   0.97227   0.00000  Uiso   1.00
H351   H     0.09421   0.36687   0.01901   0.00000  Uiso   1.00
H352   H     0.53382   0.06441   0.11338   0.00000  Uiso   1.00
H353   H     0.43817   0.28085   0.24544   0.00000  Uiso   1.00
H354   H     0.47617   0.38022   0.22197   0.00000  Uiso   1.00
H355   H     0.31876   0.30107   0.24413   0.00000  Uiso   1.00
H356   H     0.52724   0.15764   0.28888   0.00000  Uiso   1.00
H357   H     0.50613   0.49611   0.16651   0.00000  Uiso   1.00
H358   H     0.17424   0.32920   0.21324   0.00000  Uiso   1.00
H359   H     0.61386   0.02675   0.30762   0.00000  Uiso   1.00
O360   O     0.48941   0.58111   0.04985   0.00000  Uiso   1.00
O361   O     0.05398   0.36213   0.11117   0.00000  Uiso   1.00
O362   O     0.63075   0.96532   0.23499   0.00000  Uiso   1.00
N363   N     0.43973   0.51126   0.02121   0.00000  Uiso   1.00
N364   N     0.12943   0.35523   0.06490   0.00000  Uiso   1.00
N365   N     0.54042   0.07245   0.15313   0.00000  Uiso   1.00
N366   N     0.48280   0.49099   0.12572   0.00000  Uiso   1.00
N367   N     0.17250   0.33496   0.16942   0.00000  Uiso   1.00
N368   N     0.58349   0.05218   0.25765   0.00000  Uiso   1.00
C369   C     0.69505   0.64744   0.65023   0.00000  Uiso   1.00
C370   C     0.67618   0.72370   0.62433   0.00000  Uiso   1.00
C371   C     0.62510   0.76973   0.62746   0.00000  Uiso   1.00
C372   C     0.61582   0.83732   0.60099   0.00000  Uiso   1.00
C373   C     0.58040   0.95258   0.56514   0.00000  Uiso   1.00
C374   C     0.77310   0.61069   0.69951   0.00000  Uiso   1.00
C375   C     0.80350   0.56169   0.76586   0.00000  Uiso   1.00
C376   C     0.87582   0.53415   0.80268   0.00000  Uiso   1.00
C377   C     0.99087   0.47391   0.88354   0.00000  Uiso   1.00
C378   C     0.68683   0.63410   0.59083   0.00000  Uiso   1.00
C379   C     0.64472   0.60477   0.56581   0.00000  Uiso   1.00
C380   C     0.64441   0.59692   0.51113   0.00000  Uiso   1.00
C381   C     0.62552   0.57304   0.42326   0.00000  Uiso   1.00
C382   C     0.76940   0.68564   0.59766   0.00000  Uiso   1.00
C383   C     0.71656   0.74445   0.59577   0.00000  Uiso   1.00
C384   C     0.70736   0.81200   0.56929   0.00000  Uiso   1.00
C385   C     0.65628   0.85811   0.57238   0.00000  Uiso   1.00
C386   C     0.81348   0.63144   0.67096   0.00000  Uiso   1.00
C387   C     0.88577   0.60396   0.70769   0.00000  Uiso   1.00
C388   C     0.91628   0.55493   0.77407   0.00000  Uiso   1.00
C389   C     0.72721   0.65485   0.56227   0.00000  Uiso   1.00
C390   C     0.72698   0.64704   0.50763   0.00000  Uiso   1.00
C391   C     0.68487   0.61771   0.48253   0.00000  Uiso   1.00
H392   H     0.66361   0.63128   0.67247   0.00000  Uiso   1.00
H393   H     0.59386   0.75365   0.64957   0.00000  Uiso   1.00
H394   H     0.77224   0.54564   0.78794   0.00000  Uiso   1.00
H395   H     0.61347   0.58872   0.58792   0.00000  Uiso   1.00
H396   H     0.53436   0.89846   0.61161   0.00000  Uiso   1.00
H397   H     0.91048   0.45985   0.90337   0.00000  Uiso   1.00
H398   H     0.57569   0.55068   0.48158   0.00000  Uiso   1.00
H399   H     0.80084   0.70180   0.57542   0.00000  Uiso   1.00
H400   H     0.73862   0.82804   0.54719   0.00000  Uiso   1.00
H401   H     0.91700   0.62003   0.68557   0.00000  Uiso   1.00
H402   H     0.75824   0.66310   0.48555   0.00000  Uiso   1.00
H403   H     0.65185   0.95884   0.52852   0.00000  Uiso   1.00
H404   H     0.02798   0.52022   0.82028   0.00000  Uiso   1.00
H405   H     0.69319   0.61106   0.39849   0.00000  Uiso   1.00
O406   O     0.54971   0.01042   0.55327   0.00000  Uiso   1.00
O407   O     0.04317   0.43496   0.93604   0.00000  Uiso   1.00
O408   O     0.60394   0.55414   0.38267   0.00000  Uiso   1.00
N409   N     0.57054   0.89535   0.59592   0.00000  Uiso   1.00
N410   N     0.92219   0.48528   0.86870   0.00000  Uiso   1.00
N411   N     0.60921   0.57018   0.47437   0.00000  Uiso   1.00
N412   N     0.63376   0.92784   0.55121   0.00000  Uiso   1.00
N413   N     0.98541   0.51776   0.82399   0.00000  Uiso   1.00
N414   N     0.67243   0.60267   0.42966   0.00000  Uiso   1.00
C415   C     0.64618   0.14468   0.70041   0.00000  Uiso   1.00
C416   C     0.61882   0.22105   0.67899   0.00000  Uiso   1.00
C417   C     0.62854   0.26862   0.63345   0.00000  Uiso   1.00
C418   C     0.59939   0.33602   0.62059   0.00000  Uiso   1.00
C419   C     0.56266   0.45169   0.58256   0.00000  Uiso   1.00
C420   C     0.68999   0.10826   0.77640   0.00000  Uiso   1.00
C421   C     0.75954   0.06100   0.81275   0.00000  Uiso   1.00
C422   C     0.79030   0.03346   0.88189   0.00000  Uiso   1.00
C423   C     0.86404   0.97400   0.99508   0.00000  Uiso   1.00
C424   C     0.58240   0.12879   0.68569   0.00000  Uiso   1.00
C425   C     0.56150   0.09878   0.64579   0.00000  Uiso   1.00
C426   C     0.50168   0.08851   0.63857   0.00000  Uiso   1.00
C427   C     0.40837   0.06092   0.61093   0.00000  Uiso   1.00
C428   C     0.57713   0.17979   0.75856   0.00000  Uiso   1.00
C429   C     0.58132   0.24011   0.71058   0.00000  Uiso   1.00
C430   C     0.55215   0.30746   0.69779   0.00000  Uiso   1.00
C431   C     0.56182   0.35513   0.65224   0.00000  Uiso   1.00
C432   C     0.65249   0.12733   0.80799   0.00000  Uiso   1.00
C433   C     0.68315   0.09985   0.87709   0.00000  Uiso   1.00
C434   C     0.75273   0.05257   0.91354   0.00000  Uiso   1.00
C435   C     0.54490   0.14786   0.71728   0.00000  Uiso   1.00
C436   C     0.48511   0.13763   0.71013   0.00000  Uiso   1.00
C437   C     0.46411   0.10761   0.67022   0.00000  Uiso   1.00
H438   H     0.67538   0.12983   0.67582   0.00000  Uiso   1.00
H439   H     0.65757   0.25384   0.60902   0.00000  Uiso   1.00
H440   H     0.78855   0.04625   0.78829   0.00000  Uiso   1.00
H441   H     0.59053   0.08403   0.62135   0.00000  Uiso   1.00
H442   H     0.62132   0.39973   0.54891   0.00000  Uiso   1.00
H443   H     0.89748   0.96201   0.92691   0.00000  Uiso   1.00
H444   H     0.47992   0.04166   0.57489   0.00000  Uiso   1.00
H445   H     0.54794   0.19464   0.78316   0.00000  Uiso   1.00
H446   H     0.52313   0.32221   0.72224   0.00000  Uiso   1.00
H447   H     0.65411   0.11462   0.90152   0.00000  Uiso   1.00
H448   H     0.45610   0.15239   0.73458   0.00000  Uiso   1.00
H449   H     0.51220   0.45522   0.64081   0.00000  Uiso   1.00
H450   H     0.78837   0.01749   0.01881   0.00000  Uiso   1.00
H451   H     0.37081   0.09715   0.66679   0.00000  Uiso   1.00
O452   O     0.55277   0.51022   0.55287   0.00000  Uiso   1.00
O453   O     0.91508   0.93593   0.04879   0.00000  Uiso   1.00
O454   O     0.36725   0.04044   0.58695   0.00000  Uiso   1.00
N455   N     0.59903   0.39529   0.57889   0.00000  Uiso   1.00
N456   N     0.85723   0.98605   0.93230   0.00000  Uiso   1.00
N457   N     0.46686   0.06050   0.60320   0.00000  Uiso   1.00
N458   N     0.54032   0.42514   0.62834   0.00000  Uiso   1.00
N459   N     0.79852   0.01590   0.98175   0.00000  Uiso   1.00
N460   N     0.40815   0.09036   0.65265   0.00000  Uiso   1.00
C461   C     0.30046   0.87994   0.93424   0.00000  Uiso   1.00
C462   C     0.32500   0.93555   0.93639   0.00000  Uiso   1.00
C463   C     0.37637   0.93075   0.99227   0.00000  Uiso   1.00
C464   C     0.39126   0.98724   0.98395   0.00000  Uiso   1.00
C465   C     0.43471   0.06460   0.99673   0.00000  Uiso   1.00
C466   C     0.22172   0.91246   0.90855   0.00000  Uiso   1.00
C467   C     0.18624   0.88823   0.94102   0.00000  Uiso   1.00
C468   C     0.11419   0.92528   0.90925   0.00000  Uiso   1.00
C469   C     0.99728   0.96676   0.87879   0.00000  Uiso   1.00
C470   C     0.31018   0.86641   0.87956   0.00000  Uiso   1.00
C471   C     0.34907   0.80346   0.88764   0.00000  Uiso   1.00
C472   C     0.35148   0.80173   0.83147   0.00000  Uiso   1.00
C473   C     0.37193   0.77172   0.75600   0.00000  Uiso   1.00
C474   C     0.23557   0.98879   0.82011   0.00000  Uiso   1.00
C475   C     0.28976   0.99467   0.87440   0.00000  Uiso   1.00
C476   C     0.30458   0.05118   0.86599   0.00000  Uiso   1.00
C477   C     0.35596   0.04646   0.92184   0.00000  Uiso   1.00
C478   C     0.18647   0.97158   0.84656   0.00000  Uiso   1.00
C479   C     0.11445   0.00866   0.81474   0.00000  Uiso   1.00
C480   C     0.07888   0.98451   0.84715   0.00000  Uiso   1.00
C481   C     0.27494   0.92553   0.81757   0.00000  Uiso   1.00
C482   C     0.27728   0.92389   0.76137   0.00000  Uiso   1.00
C483   C     0.31617   0.86096   0.76937   0.00000  Uiso   1.00
H484   H     0.32789   0.83391   0.98250   0.00000  Uiso   1.00
H485   H     0.40363   0.88499   0.04023   0.00000  Uiso   1.00
H486   H     0.21353   0.84248   0.98899   0.00000  Uiso   1.00
H487   H     0.37634   0.75772   0.93562   0.00000  Uiso   1.00
H488   H     0.47203   0.96770   0.07691   0.00000  Uiso   1.00
H489   H     0.07120   0.87805   0.96884   0.00000  Uiso   1.00
H490   H     0.41451   0.69932   0.85631   0.00000  Uiso   1.00
H491   H     0.20813   0.03482   0.77184   0.00000  Uiso   1.00
H492   H     0.27730   0.09692   0.81801   0.00000  Uiso   1.00
H493   H     0.08720   0.05441   0.76677   0.00000  Uiso   1.00
H494   H     0.25000   0.96966   0.71341   0.00000  Uiso   1.00
H495   H     0.36950   0.13972   0.89655   0.00000  Uiso   1.00
H496   H     0.96866   0.05006   0.78848   0.00000  Uiso   1.00
H497   H     0.31197   0.87134   0.67595   0.00000  Uiso   1.00
O498   O     0.46841   0.09095   0.02091   0.00000  Uiso   1.00
O499   O     0.94253   0.97332   0.87912   0.00000  Uiso   1.00
O500   O     0.39295   0.73884   0.73149   0.00000  Uiso   1.00
N501   N     0.43842   0.99966   0.02812   0.00000  Uiso   1.00
N502   N     0.06366   0.91584   0.92709   0.00000  Uiso   1.00
N503   N     0.38461   0.74875   0.82188   0.00000  Uiso   1.00
N504   N     0.38325   0.09222   0.93107   0.00000  Uiso   1.00
N505   N     0.00849   0.00840   0.83004   0.00000  Uiso   1.00
N506   N     0.32944   0.84131   0.72483   0.00000  Uiso   1.00
C507   C     0.04515   0.79497   0.34443   0.00000  Uiso   1.00
C508   C     0.05232   0.84539   0.37151   0.00000  Uiso   1.00
C509   C     0.99821   0.89439   0.36850   0.00000  Uiso   1.00
C510   C     0.01552   0.93560   0.39612   0.00000  Uiso   1.00
C511   C     0.01616   0.01507   0.43364   0.00000  Uiso   1.00
C512   C     0.07498   0.80605   0.29574   0.00000  Uiso   1.00
C513   C     0.03991   0.82196   0.22903   0.00000  Uiso   1.00
C514   C     0.07630   0.83005   0.19287   0.00000  Uiso   1.00
C515   C     0.11213   0.84838   0.11277   0.00000  Uiso   1.00
C516   C     0.09517   0.72393   0.40331   0.00000  Uiso   1.00
C517   C     0.07709   0.67079   0.42704   0.00000  Uiso   1.00
C518   C     0.13048   0.60973   0.48145   0.00000  Uiso   1.00
C519   C     0.19766   0.50057   0.56837   0.00000  Uiso   1.00
C520   C     0.17214   0.78104   0.39883   0.00000  Uiso   1.00
C521   C     0.12130   0.83782   0.40106   0.00000  Uiso   1.00
C522   C     0.13870   0.87897   0.42869   0.00000  Uiso   1.00
C523   C     0.08461   0.92802   0.42573   0.00000  Uiso   1.00
C524   C     0.14395   0.79848   0.32529   0.00000  Uiso   1.00
C525   C     0.18040   0.80654   0.28922   0.00000  Uiso   1.00
C526   C     0.14540   0.82246   0.22247   0.00000  Uiso   1.00
C527   C     0.16415   0.71636   0.43287   0.00000  Uiso   1.00
C528   C     0.21758   0.65537   0.48724   0.00000  Uiso   1.00
C529   C     0.19958   0.60215   0.51105   0.00000  Uiso   1.00
H530   H     0.99146   0.80086   0.32142   0.00000  Uiso   1.00
H531   H     0.94483   0.90023   0.34562   0.00000  Uiso   1.00
H532   H     0.98654   0.82780   0.20618   0.00000  Uiso   1.00
H533   H     0.02371   0.67666   0.40416   0.00000  Uiso   1.00
H534   H     0.92356   0.00708   0.38547   0.00000  Uiso   1.00
H535   H     0.01150   0.85434   0.09144   0.00000  Uiso   1.00
H536   H     0.08988   0.53563   0.50893   0.00000  Uiso   1.00
H537   H     0.22584   0.77514   0.42184   0.00000  Uiso   1.00
H538   H     0.19208   0.87310   0.45155   0.00000  Uiso   1.00
H539   H     0.23378   0.80068   0.31210   0.00000  Uiso   1.00
H540   H     0.27095   0.64953   0.51009   0.00000  Uiso   1.00
H541   H     0.12423   0.98506   0.47144   0.00000  Uiso   1.00
H542   H     0.21217   0.83232   0.17741   0.00000  Uiso   1.00
H543   H     0.29055   0.51361   0.59491   0.00000  Uiso   1.00
O544   O     0.99745   0.06099   0.44617   0.00000  Uiso   1.00
O545   O     0.11283   0.86059   0.06042   0.00000  Uiso   1.00
O546   O     0.21566   0.44245   0.60816   0.00000  Uiso   1.00
N547   N     0.97542   0.98845   0.40164   0.00000  Uiso   1.00
N548   N     0.05764   0.84565   0.12673   0.00000  Uiso   1.00
N549   N     0.13092   0.54768   0.51704   0.00000  Uiso   1.00
N550   N     0.08340   0.97660   0.44790   0.00000  Uiso   1.00
N551   N     0.16562   0.83381   0.17299   0.00000  Uiso   1.00
N552   N     0.23890   0.53583   0.56331   0.00000  Uiso   1.00
