data_job_02049
_audit_creation_date              2018-12-19
_audit_creation_method            'Materials Studio'
_symmetry_space_group_name_H-M    'P1'
_symmetry_Int_Tables_number       1
_symmetry_cell_setting            triclinic
loop_
_symmetry_equiv_pos_as_xyz
  x,y,z
_cell_length_a                    7.3261
_cell_length_b                    22.9086
_cell_length_c                    31.9121
_cell_angle_alpha                 90.0000
_cell_angle_beta                  90.0000
_cell_angle_gamma                 90.0000
loop_
_atom_site_label
_atom_site_type_symbol
_atom_site_fract_x
_atom_site_fract_y
_atom_site_fract_z
_atom_site_U_iso_or_equiv
_atom_site_adp_type
_atom_site_occupancy
C1     C     0.83731   0.16422   0.40828   0.00000  Uiso   1.00
C2     C     0.93856   0.21601   0.38928   0.00000  Uiso   1.00
C3     C     0.86061   0.26880   0.37768   0.00000  Uiso   1.00
C4     C     0.97641   0.31067   0.36086   0.00000  Uiso   1.00
C5     C     0.10516   0.39270   0.33211   0.00000  Uiso   1.00
C6     C     0.87623   0.11242   0.37963   0.00000  Uiso   1.00
C7     C     0.74588   0.07811   0.35990   0.00000  Uiso   1.00
C8     C     0.80922   0.03277   0.33496   0.00000  Uiso   1.00
C9     C     0.84120   0.95394   0.29124   0.00000  Uiso   1.00
C10    C     0.93307   0.15084   0.44960   0.00000  Uiso   1.00
C11    C     0.85050   0.14882   0.48872   0.00000  Uiso   1.00
C12    C     0.96169   0.13581   0.52269   0.00000  Uiso   1.00
C13    C     0.08191   0.11664   0.58762   0.00000  Uiso   1.00
C14    C     0.18158   0.14470   0.39906   0.00000  Uiso   1.00
C15    C     0.12555   0.20541   0.38428   0.00000  Uiso   1.00
C16    C     0.24151   0.24721   0.36748   0.00000  Uiso   1.00
C17    C     0.16374   0.30005   0.35585   0.00000  Uiso   1.00
C18    C     0.06322   0.10182   0.37462   0.00000  Uiso   1.00
C19    C     0.12677   0.05651   0.34970   0.00000  Uiso   1.00
C20    C     0.99655   0.02215   0.32994   0.00000  Uiso   1.00
C21    C     0.12006   0.14024   0.44460   0.00000  Uiso   1.00
C22    C     0.23140   0.12723   0.47852   0.00000  Uiso   1.00
C23    C     0.14901   0.12519   0.51768   0.00000  Uiso   1.00
H24    H     0.69173   0.17247   0.41217   0.00000  Uiso   1.00
H25    H     0.71589   0.27699   0.38155   0.00000  Uiso   1.00
H26    H     0.60118   0.08632   0.36378   0.00000  Uiso   1.00
H27    H     0.70579   0.15703   0.49258   0.00000  Uiso   1.00
H28    H     0.82513   0.38819   0.34538   0.00000  Uiso   1.00
H29    H     0.58326   0.98614   0.30792   0.00000  Uiso   1.00
H30    H     0.80384   0.13523   0.57952   0.00000  Uiso   1.00
H31    H     0.32717   0.13645   0.39517   0.00000  Uiso   1.00
H32    H     0.38621   0.23899   0.36361   0.00000  Uiso   1.00
H33    H     0.27149   0.04832   0.34584   0.00000  Uiso   1.00
H34    H     0.37610   0.11903   0.47464   0.00000  Uiso   1.00
H35    H     0.36918   0.35735   0.33081   0.00000  Uiso   1.00
H36    H     0.12730   0.95529   0.29336   0.00000  Uiso   1.00
H37    H     0.34789   0.10439   0.56495   0.00000  Uiso   1.00
O38    O     0.12451   0.44087   0.31763   0.00000  Uiso   1.00
O39    O     0.80718   0.91339   0.26850   0.00000  Uiso   1.00
O40    O     0.09658   0.10900   0.62482   0.00000  Uiso   1.00
N41    N     0.94508   0.36686   0.34629   0.00000  Uiso   1.00
N42    N     0.71894   0.99097   0.31127   0.00000  Uiso   1.00
N43    N     0.92515   0.13035   0.56518   0.00000  Uiso   1.00
N44    N     0.23783   0.35027   0.33845   0.00000  Uiso   1.00
N45    N     0.01169   0.97438   0.30343   0.00000  Uiso   1.00
N46    N     0.21790   0.11376   0.55734   0.00000  Uiso   1.00
C47    C     0.66269   0.33578   0.90828   0.00000  Uiso   1.00
C48    C     0.56144   0.28399   0.88928   0.00000  Uiso   1.00
C49    C     0.63939   0.23120   0.87768   0.00000  Uiso   1.00
C50    C     0.52359   0.18933   0.86086   0.00000  Uiso   1.00
C51    C     0.39484   0.10730   0.83211   0.00000  Uiso   1.00
C52    C     0.62377   0.38758   0.87963   0.00000  Uiso   1.00
C53    C     0.75412   0.42189   0.85990   0.00000  Uiso   1.00
C54    C     0.69078   0.46723   0.83496   0.00000  Uiso   1.00
C55    C     0.65880   0.54606   0.79124   0.00000  Uiso   1.00
C56    C     0.56693   0.34916   0.94960   0.00000  Uiso   1.00
C57    C     0.64950   0.35118   0.98872   0.00000  Uiso   1.00
C58    C     0.53831   0.36419   0.02269   0.00000  Uiso   1.00
C59    C     0.41809   0.38336   0.08762   0.00000  Uiso   1.00
C60    C     0.31842   0.35530   0.89906   0.00000  Uiso   1.00
C61    C     0.37445   0.29459   0.88428   0.00000  Uiso   1.00
C62    C     0.25849   0.25279   0.86748   0.00000  Uiso   1.00
C63    C     0.33626   0.19995   0.85585   0.00000  Uiso   1.00
C64    C     0.43678   0.39818   0.87462   0.00000  Uiso   1.00
C65    C     0.37323   0.44349   0.84970   0.00000  Uiso   1.00
C66    C     0.50345   0.47785   0.82994   0.00000  Uiso   1.00
C67    C     0.37994   0.35976   0.94460   0.00000  Uiso   1.00
C68    C     0.26860   0.37277   0.97852   0.00000  Uiso   1.00
C69    C     0.35099   0.37481   0.01768   0.00000  Uiso   1.00
H70    H     0.80827   0.32753   0.91217   0.00000  Uiso   1.00
H71    H     0.78411   0.22301   0.88155   0.00000  Uiso   1.00
H72    H     0.89882   0.41368   0.86378   0.00000  Uiso   1.00
H73    H     0.79421   0.34297   0.99258   0.00000  Uiso   1.00
H74    H     0.67487   0.11181   0.84538   0.00000  Uiso   1.00
H75    H     0.91674   0.51386   0.80792   0.00000  Uiso   1.00
H76    H     0.69616   0.36477   0.07952   0.00000  Uiso   1.00
H77    H     0.17283   0.36355   0.89517   0.00000  Uiso   1.00
H78    H     0.11379   0.26101   0.86361   0.00000  Uiso   1.00
H79    H     0.22851   0.45168   0.84584   0.00000  Uiso   1.00
H80    H     0.12390   0.38097   0.97464   0.00000  Uiso   1.00
H81    H     0.13082   0.14265   0.83081   0.00000  Uiso   1.00
H82    H     0.37270   0.54471   0.79336   0.00000  Uiso   1.00
H83    H     0.15211   0.39561   0.06495   0.00000  Uiso   1.00
O84    O     0.37549   0.05913   0.81763   0.00000  Uiso   1.00
O85    O     0.69282   0.58661   0.76850   0.00000  Uiso   1.00
O86    O     0.40342   0.39100   0.12482   0.00000  Uiso   1.00
N87    N     0.55492   0.13314   0.84629   0.00000  Uiso   1.00
N88    N     0.78106   0.50903   0.81127   0.00000  Uiso   1.00
N89    N     0.57485   0.36965   0.06518   0.00000  Uiso   1.00
N90    N     0.26217   0.14973   0.83845   0.00000  Uiso   1.00
N91    N     0.48831   0.52562   0.80343   0.00000  Uiso   1.00
N92    N     0.28210   0.38624   0.05734   0.00000  Uiso   1.00
C93    C     0.16269   0.16422   0.09172   0.00000  Uiso   1.00
C94    C     0.06144   0.21601   0.11072   0.00000  Uiso   1.00
C95    C     0.13939   0.26880   0.12232   0.00000  Uiso   1.00
C96    C     0.02359   0.31067   0.13914   0.00000  Uiso   1.00
C97    C     0.89484   0.39270   0.16789   0.00000  Uiso   1.00
C98    C     0.12377   0.11242   0.12037   0.00000  Uiso   1.00
C99    C     0.25412   0.07811   0.14010   0.00000  Uiso   1.00
C100   C     0.19078   0.03277   0.16504   0.00000  Uiso   1.00
C101   C     0.15880   0.95394   0.20876   0.00000  Uiso   1.00
C102   C     0.06693   0.15084   0.05040   0.00000  Uiso   1.00
C103   C     0.14950   0.14882   0.01128   0.00000  Uiso   1.00
C104   C     0.03831   0.13581   0.97731   0.00000  Uiso   1.00
C105   C     0.91809   0.11664   0.91238   0.00000  Uiso   1.00
C106   C     0.81842   0.14470   0.10094   0.00000  Uiso   1.00
C107   C     0.87445   0.20541   0.11572   0.00000  Uiso   1.00
C108   C     0.75849   0.24721   0.13252   0.00000  Uiso   1.00
C109   C     0.83626   0.30005   0.14415   0.00000  Uiso   1.00
C110   C     0.93678   0.10182   0.12538   0.00000  Uiso   1.00
C111   C     0.87323   0.05651   0.15030   0.00000  Uiso   1.00
C112   C     0.00345   0.02215   0.17006   0.00000  Uiso   1.00
C113   C     0.87994   0.14024   0.05540   0.00000  Uiso   1.00
C114   C     0.76860   0.12723   0.02148   0.00000  Uiso   1.00
C115   C     0.85099   0.12519   0.98232   0.00000  Uiso   1.00
H116   H     0.30827   0.17247   0.08783   0.00000  Uiso   1.00
H117   H     0.28411   0.27699   0.11845   0.00000  Uiso   1.00
H118   H     0.39882   0.08632   0.13622   0.00000  Uiso   1.00
H119   H     0.29421   0.15703   0.00742   0.00000  Uiso   1.00
H120   H     0.17487   0.38819   0.15462   0.00000  Uiso   1.00
H121   H     0.41674   0.98614   0.19208   0.00000  Uiso   1.00
H122   H     0.19616   0.13523   0.92048   0.00000  Uiso   1.00
H123   H     0.67283   0.13645   0.10483   0.00000  Uiso   1.00
H124   H     0.61379   0.23899   0.13639   0.00000  Uiso   1.00
H125   H     0.72851   0.04832   0.15416   0.00000  Uiso   1.00
H126   H     0.62390   0.11903   0.02536   0.00000  Uiso   1.00
H127   H     0.63082   0.35735   0.16919   0.00000  Uiso   1.00
H128   H     0.87270   0.95529   0.20664   0.00000  Uiso   1.00
H129   H     0.65211   0.10439   0.93505   0.00000  Uiso   1.00
O130   O     0.87549   0.44087   0.18237   0.00000  Uiso   1.00
O131   O     0.19282   0.91339   0.23150   0.00000  Uiso   1.00
O132   O     0.90342   0.10900   0.87518   0.00000  Uiso   1.00
N133   N     0.05492   0.36686   0.15371   0.00000  Uiso   1.00
N134   N     0.28106   0.99097   0.18873   0.00000  Uiso   1.00
N135   N     0.07485   0.13035   0.93482   0.00000  Uiso   1.00
N136   N     0.76217   0.35027   0.16155   0.00000  Uiso   1.00
N137   N     0.98831   0.97438   0.19657   0.00000  Uiso   1.00
N138   N     0.78210   0.11376   0.94266   0.00000  Uiso   1.00
C139   C     0.33731   0.33578   0.59172   0.00000  Uiso   1.00
C140   C     0.43856   0.28399   0.61072   0.00000  Uiso   1.00
C141   C     0.36061   0.23120   0.62232   0.00000  Uiso   1.00
C142   C     0.47641   0.18933   0.63914   0.00000  Uiso   1.00
C143   C     0.60516   0.10730   0.66789   0.00000  Uiso   1.00
C144   C     0.37623   0.38758   0.62037   0.00000  Uiso   1.00
C145   C     0.24588   0.42189   0.64010   0.00000  Uiso   1.00
C146   C     0.30922   0.46723   0.66504   0.00000  Uiso   1.00
C147   C     0.34120   0.54606   0.70876   0.00000  Uiso   1.00
C148   C     0.43307   0.34916   0.55040   0.00000  Uiso   1.00
C149   C     0.35050   0.35118   0.51128   0.00000  Uiso   1.00
C150   C     0.46169   0.36419   0.47731   0.00000  Uiso   1.00
C151   C     0.58191   0.38336   0.41238   0.00000  Uiso   1.00
C152   C     0.68158   0.35530   0.60094   0.00000  Uiso   1.00
C153   C     0.62555   0.29459   0.61572   0.00000  Uiso   1.00
C154   C     0.74151   0.25279   0.63252   0.00000  Uiso   1.00
C155   C     0.66374   0.19995   0.64415   0.00000  Uiso   1.00
C156   C     0.56322   0.39818   0.62538   0.00000  Uiso   1.00
C157   C     0.62677   0.44349   0.65030   0.00000  Uiso   1.00
C158   C     0.49655   0.47785   0.67006   0.00000  Uiso   1.00
C159   C     0.62006   0.35976   0.55540   0.00000  Uiso   1.00
C160   C     0.73140   0.37277   0.52148   0.00000  Uiso   1.00
C161   C     0.64901   0.37481   0.48232   0.00000  Uiso   1.00
H162   H     0.19173   0.32753   0.58783   0.00000  Uiso   1.00
H163   H     0.21589   0.22301   0.61845   0.00000  Uiso   1.00
H164   H     0.10118   0.41368   0.63622   0.00000  Uiso   1.00
H165   H     0.20579   0.34297   0.50742   0.00000  Uiso   1.00
H166   H     0.32513   0.11181   0.65462   0.00000  Uiso   1.00
H167   H     0.08326   0.51386   0.69208   0.00000  Uiso   1.00
H168   H     0.30384   0.36477   0.42048   0.00000  Uiso   1.00
H169   H     0.82717   0.36355   0.60483   0.00000  Uiso   1.00
H170   H     0.88621   0.26101   0.63639   0.00000  Uiso   1.00
H171   H     0.77149   0.45168   0.65416   0.00000  Uiso   1.00
H172   H     0.87610   0.38097   0.52536   0.00000  Uiso   1.00
H173   H     0.86918   0.14265   0.66919   0.00000  Uiso   1.00
H174   H     0.62730   0.54471   0.70664   0.00000  Uiso   1.00
H175   H     0.84789   0.39561   0.43505   0.00000  Uiso   1.00
O176   O     0.62451   0.05913   0.68237   0.00000  Uiso   1.00
O177   O     0.30718   0.58661   0.73150   0.00000  Uiso   1.00
O178   O     0.59658   0.39100   0.37518   0.00000  Uiso   1.00
N179   N     0.44508   0.13314   0.65371   0.00000  Uiso   1.00
N180   N     0.21894   0.50903   0.68873   0.00000  Uiso   1.00
N181   N     0.42515   0.36965   0.43482   0.00000  Uiso   1.00
N182   N     0.73783   0.14973   0.66155   0.00000  Uiso   1.00
N183   N     0.51169   0.52562   0.69657   0.00000  Uiso   1.00
N184   N     0.71790   0.38624   0.44266   0.00000  Uiso   1.00
C185   C     0.16269   0.83578   0.59172   0.00000  Uiso   1.00
C186   C     0.06144   0.78399   0.61072   0.00000  Uiso   1.00
C187   C     0.13939   0.73120   0.62232   0.00000  Uiso   1.00
C188   C     0.02359   0.68933   0.63914   0.00000  Uiso   1.00
C189   C     0.89484   0.60730   0.66789   0.00000  Uiso   1.00
C190   C     0.12377   0.88758   0.62037   0.00000  Uiso   1.00
C191   C     0.25412   0.92189   0.64010   0.00000  Uiso   1.00
C192   C     0.19078   0.96723   0.66504   0.00000  Uiso   1.00
C193   C     0.15880   0.04606   0.70876   0.00000  Uiso   1.00
C194   C     0.06693   0.84916   0.55040   0.00000  Uiso   1.00
C195   C     0.14950   0.85118   0.51128   0.00000  Uiso   1.00
C196   C     0.03831   0.86419   0.47731   0.00000  Uiso   1.00
C197   C     0.91809   0.88336   0.41238   0.00000  Uiso   1.00
C198   C     0.81842   0.85530   0.60094   0.00000  Uiso   1.00
C199   C     0.87445   0.79459   0.61572   0.00000  Uiso   1.00
C200   C     0.75849   0.75279   0.63252   0.00000  Uiso   1.00
C201   C     0.83626   0.69995   0.64415   0.00000  Uiso   1.00
C202   C     0.93678   0.89818   0.62538   0.00000  Uiso   1.00
C203   C     0.87323   0.94349   0.65030   0.00000  Uiso   1.00
C204   C     0.00345   0.97785   0.67006   0.00000  Uiso   1.00
C205   C     0.87994   0.85976   0.55540   0.00000  Uiso   1.00
C206   C     0.76860   0.87277   0.52148   0.00000  Uiso   1.00
C207   C     0.85099   0.87481   0.48232   0.00000  Uiso   1.00
H208   H     0.30827   0.82753   0.58783   0.00000  Uiso   1.00
H209   H     0.28411   0.72301   0.61845   0.00000  Uiso   1.00
H210   H     0.39882   0.91368   0.63622   0.00000  Uiso   1.00
H211   H     0.29421   0.84297   0.50742   0.00000  Uiso   1.00
H212   H     0.17487   0.61181   0.65462   0.00000  Uiso   1.00
H213   H     0.41674   0.01386   0.69208   0.00000  Uiso   1.00
H214   H     0.19616   0.86477   0.42048   0.00000  Uiso   1.00
H215   H     0.67283   0.86355   0.60483   0.00000  Uiso   1.00
H216   H     0.61379   0.76101   0.63639   0.00000  Uiso   1.00
H217   H     0.72851   0.95168   0.65416   0.00000  Uiso   1.00
H218   H     0.62390   0.88097   0.52536   0.00000  Uiso   1.00
H219   H     0.63082   0.64265   0.66919   0.00000  Uiso   1.00
H220   H     0.87270   0.04471   0.70664   0.00000  Uiso   1.00
H221   H     0.65211   0.89561   0.43505   0.00000  Uiso   1.00
O222   O     0.87549   0.55913   0.68237   0.00000  Uiso   1.00
O223   O     0.19282   0.08661   0.73150   0.00000  Uiso   1.00
O224   O     0.90342   0.89100   0.37518   0.00000  Uiso   1.00
N225   N     0.05492   0.63314   0.65371   0.00000  Uiso   1.00
N226   N     0.28106   0.00903   0.68873   0.00000  Uiso   1.00
N227   N     0.07485   0.86965   0.43482   0.00000  Uiso   1.00
N228   N     0.76217   0.64973   0.66155   0.00000  Uiso   1.00
N229   N     0.98831   0.02562   0.69657   0.00000  Uiso   1.00
N230   N     0.78210   0.88624   0.44266   0.00000  Uiso   1.00
C231   C     0.33731   0.66422   0.09172   0.00000  Uiso   1.00
C232   C     0.43856   0.71601   0.11072   0.00000  Uiso   1.00
C233   C     0.36061   0.76880   0.12232   0.00000  Uiso   1.00
C234   C     0.47641   0.81067   0.13914   0.00000  Uiso   1.00
C235   C     0.60516   0.89270   0.16789   0.00000  Uiso   1.00
C236   C     0.37623   0.61242   0.12037   0.00000  Uiso   1.00
C237   C     0.24588   0.57811   0.14010   0.00000  Uiso   1.00
C238   C     0.30922   0.53277   0.16504   0.00000  Uiso   1.00
C239   C     0.34120   0.45394   0.20876   0.00000  Uiso   1.00
C240   C     0.43307   0.65084   0.05040   0.00000  Uiso   1.00
C241   C     0.35050   0.64882   0.01128   0.00000  Uiso   1.00
C242   C     0.46169   0.63581   0.97731   0.00000  Uiso   1.00
C243   C     0.58191   0.61664   0.91238   0.00000  Uiso   1.00
C244   C     0.68158   0.64470   0.10094   0.00000  Uiso   1.00
C245   C     0.62555   0.70541   0.11572   0.00000  Uiso   1.00
C246   C     0.74151   0.74721   0.13252   0.00000  Uiso   1.00
C247   C     0.66374   0.80005   0.14415   0.00000  Uiso   1.00
C248   C     0.56322   0.60182   0.12538   0.00000  Uiso   1.00
C249   C     0.62677   0.55651   0.15030   0.00000  Uiso   1.00
C250   C     0.49655   0.52215   0.17006   0.00000  Uiso   1.00
C251   C     0.62006   0.64024   0.05540   0.00000  Uiso   1.00
C252   C     0.73140   0.62723   0.02148   0.00000  Uiso   1.00
C253   C     0.64901   0.62519   0.98232   0.00000  Uiso   1.00
H254   H     0.19173   0.67247   0.08783   0.00000  Uiso   1.00
H255   H     0.21589   0.77699   0.11845   0.00000  Uiso   1.00
H256   H     0.10118   0.58632   0.13622   0.00000  Uiso   1.00
H257   H     0.20579   0.65703   0.00742   0.00000  Uiso   1.00
H258   H     0.32513   0.88819   0.15462   0.00000  Uiso   1.00
H259   H     0.08326   0.48614   0.19208   0.00000  Uiso   1.00
H260   H     0.30384   0.63523   0.92048   0.00000  Uiso   1.00
H261   H     0.82717   0.63645   0.10483   0.00000  Uiso   1.00
H262   H     0.88621   0.73899   0.13639   0.00000  Uiso   1.00
H263   H     0.77149   0.54832   0.15416   0.00000  Uiso   1.00
H264   H     0.87610   0.61903   0.02536   0.00000  Uiso   1.00
H265   H     0.86918   0.85735   0.16919   0.00000  Uiso   1.00
H266   H     0.62730   0.45529   0.20664   0.00000  Uiso   1.00
H267   H     0.84789   0.60439   0.93505   0.00000  Uiso   1.00
O268   O     0.62451   0.94087   0.18237   0.00000  Uiso   1.00
O269   O     0.30718   0.41339   0.23150   0.00000  Uiso   1.00
O270   O     0.59658   0.60900   0.87518   0.00000  Uiso   1.00
N271   N     0.44508   0.86686   0.15371   0.00000  Uiso   1.00
N272   N     0.21894   0.49097   0.18873   0.00000  Uiso   1.00
N273   N     0.42515   0.63035   0.93482   0.00000  Uiso   1.00
N274   N     0.73783   0.85027   0.16155   0.00000  Uiso   1.00
N275   N     0.51169   0.47438   0.19657   0.00000  Uiso   1.00
N276   N     0.71790   0.61376   0.94266   0.00000  Uiso   1.00
C277   C     0.83731   0.83578   0.90828   0.00000  Uiso   1.00
C278   C     0.93856   0.78399   0.88928   0.00000  Uiso   1.00
C279   C     0.86061   0.73120   0.87768   0.00000  Uiso   1.00
C280   C     0.97641   0.68933   0.86086   0.00000  Uiso   1.00
C281   C     0.10516   0.60730   0.83211   0.00000  Uiso   1.00
C282   C     0.87623   0.88758   0.87963   0.00000  Uiso   1.00
C283   C     0.74588   0.92189   0.85990   0.00000  Uiso   1.00
C284   C     0.80922   0.96723   0.83496   0.00000  Uiso   1.00
C285   C     0.84120   0.04606   0.79124   0.00000  Uiso   1.00
C286   C     0.93307   0.84916   0.94960   0.00000  Uiso   1.00
C287   C     0.85050   0.85118   0.98872   0.00000  Uiso   1.00
C288   C     0.96169   0.86419   0.02269   0.00000  Uiso   1.00
C289   C     0.08191   0.88336   0.08762   0.00000  Uiso   1.00
C290   C     0.18158   0.85530   0.89906   0.00000  Uiso   1.00
C291   C     0.12555   0.79459   0.88428   0.00000  Uiso   1.00
C292   C     0.24151   0.75279   0.86748   0.00000  Uiso   1.00
C293   C     0.16374   0.69995   0.85585   0.00000  Uiso   1.00
C294   C     0.06322   0.89818   0.87462   0.00000  Uiso   1.00
C295   C     0.12677   0.94349   0.84970   0.00000  Uiso   1.00
C296   C     0.99655   0.97785   0.82994   0.00000  Uiso   1.00
C297   C     0.12006   0.85976   0.94460   0.00000  Uiso   1.00
C298   C     0.23140   0.87277   0.97852   0.00000  Uiso   1.00
C299   C     0.14901   0.87481   0.01768   0.00000  Uiso   1.00
H300   H     0.69173   0.82753   0.91217   0.00000  Uiso   1.00
H301   H     0.71589   0.72301   0.88155   0.00000  Uiso   1.00
H302   H     0.60118   0.91368   0.86378   0.00000  Uiso   1.00
H303   H     0.70579   0.84297   0.99258   0.00000  Uiso   1.00
H304   H     0.82513   0.61181   0.84538   0.00000  Uiso   1.00
H305   H     0.58326   0.01386   0.80792   0.00000  Uiso   1.00
H306   H     0.80384   0.86477   0.07952   0.00000  Uiso   1.00
H307   H     0.32717   0.86355   0.89517   0.00000  Uiso   1.00
H308   H     0.38621   0.76101   0.86361   0.00000  Uiso   1.00
H309   H     0.27149   0.95168   0.84584   0.00000  Uiso   1.00
H310   H     0.37610   0.88097   0.97464   0.00000  Uiso   1.00
H311   H     0.36918   0.64265   0.83081   0.00000  Uiso   1.00
H312   H     0.12730   0.04471   0.79336   0.00000  Uiso   1.00
H313   H     0.34789   0.89561   0.06495   0.00000  Uiso   1.00
O314   O     0.12451   0.55913   0.81763   0.00000  Uiso   1.00
O315   O     0.80718   0.08661   0.76850   0.00000  Uiso   1.00
O316   O     0.09658   0.89100   0.12482   0.00000  Uiso   1.00
N317   N     0.94508   0.63314   0.84629   0.00000  Uiso   1.00
N318   N     0.71894   0.00903   0.81127   0.00000  Uiso   1.00
N319   N     0.92515   0.86965   0.06518   0.00000  Uiso   1.00
N320   N     0.23783   0.64973   0.83845   0.00000  Uiso   1.00
N321   N     0.01169   0.02562   0.80343   0.00000  Uiso   1.00
N322   N     0.21790   0.88624   0.05734   0.00000  Uiso   1.00
C323   C     0.66269   0.66422   0.40828   0.00000  Uiso   1.00
C324   C     0.56144   0.71601   0.38928   0.00000  Uiso   1.00
C325   C     0.63939   0.76880   0.37768   0.00000  Uiso   1.00
C326   C     0.52359   0.81067   0.36086   0.00000  Uiso   1.00
C327   C     0.39484   0.89270   0.33211   0.00000  Uiso   1.00
C328   C     0.62377   0.61242   0.37963   0.00000  Uiso   1.00
C329   C     0.75412   0.57811   0.35990   0.00000  Uiso   1.00
C330   C     0.69078   0.53277   0.33496   0.00000  Uiso   1.00
C331   C     0.65880   0.45394   0.29124   0.00000  Uiso   1.00
C332   C     0.56693   0.65084   0.44960   0.00000  Uiso   1.00
C333   C     0.64950   0.64882   0.48872   0.00000  Uiso   1.00
C334   C     0.53831   0.63581   0.52269   0.00000  Uiso   1.00
C335   C     0.41809   0.61664   0.58762   0.00000  Uiso   1.00
C336   C     0.31842   0.64470   0.39906   0.00000  Uiso   1.00
C337   C     0.37445   0.70541   0.38428   0.00000  Uiso   1.00
C338   C     0.25849   0.74721   0.36748   0.00000  Uiso   1.00
C339   C     0.33626   0.80005   0.35585   0.00000  Uiso   1.00
C340   C     0.43678   0.60182   0.37462   0.00000  Uiso   1.00
C341   C     0.37323   0.55651   0.34970   0.00000  Uiso   1.00
C342   C     0.50345   0.52215   0.32994   0.00000  Uiso   1.00
C343   C     0.37994   0.64024   0.44460   0.00000  Uiso   1.00
C344   C     0.26860   0.62723   0.47852   0.00000  Uiso   1.00
C345   C     0.35099   0.62519   0.51768   0.00000  Uiso   1.00
H346   H     0.80827   0.67247   0.41217   0.00000  Uiso   1.00
H347   H     0.78411   0.77699   0.38155   0.00000  Uiso   1.00
H348   H     0.89882   0.58632   0.36378   0.00000  Uiso   1.00
H349   H     0.79421   0.65703   0.49258   0.00000  Uiso   1.00
H350   H     0.67487   0.88819   0.34538   0.00000  Uiso   1.00
H351   H     0.91674   0.48614   0.30792   0.00000  Uiso   1.00
H352   H     0.69616   0.63523   0.57952   0.00000  Uiso   1.00
H353   H     0.17283   0.63645   0.39517   0.00000  Uiso   1.00
H354   H     0.11379   0.73899   0.36361   0.00000  Uiso   1.00
H355   H     0.22851   0.54832   0.34584   0.00000  Uiso   1.00
H356   H     0.12390   0.61903   0.47464   0.00000  Uiso   1.00
H357   H     0.13082   0.85735   0.33081   0.00000  Uiso   1.00
H358   H     0.37270   0.45529   0.29336   0.00000  Uiso   1.00
H359   H     0.15211   0.60439   0.56495   0.00000  Uiso   1.00
O360   O     0.37549   0.94087   0.31763   0.00000  Uiso   1.00
O361   O     0.69282   0.41339   0.26850   0.00000  Uiso   1.00
O362   O     0.40342   0.60900   0.62482   0.00000  Uiso   1.00
N363   N     0.55492   0.86686   0.34629   0.00000  Uiso   1.00
N364   N     0.78106   0.49097   0.31127   0.00000  Uiso   1.00
N365   N     0.57485   0.63035   0.56518   0.00000  Uiso   1.00
N366   N     0.26217   0.85027   0.33845   0.00000  Uiso   1.00
N367   N     0.48831   0.47438   0.30343   0.00000  Uiso   1.00
N368   N     0.28210   0.61376   0.55734   0.00000  Uiso   1.00
