data_job_05741
_audit_creation_date              2018-12-19
_audit_creation_method            'Materials Studio'
_symmetry_space_group_name_H-M    'P1'
_symmetry_Int_Tables_number       1
_symmetry_cell_setting            triclinic
loop_
_symmetry_equiv_pos_as_xyz
  x,y,z
_cell_length_a                    30.2745
_cell_length_b                    7.1369
_cell_length_c                    23.9535
_cell_angle_alpha                 90.0000
_cell_angle_beta                  142.2713
_cell_angle_gamma                 90.0000
loop_
_atom_site_label
_atom_site_type_symbol
_atom_site_fract_x
_atom_site_fract_y
_atom_site_fract_z
_atom_site_U_iso_or_equiv
_atom_site_adp_type
_atom_site_occupancy
C1     C     0.21105   0.46174   0.71149   0.00000  Uiso   1.00
C2     C     0.24029   0.56537   0.79160   0.00000  Uiso   1.00
C3     C     0.28068   0.48637   0.87471   0.00000  Uiso   1.00
C4     C     0.30232   0.60475   0.93918   0.00000  Uiso   1.00
C5     C     0.35045   0.73667   0.06629   0.00000  Uiso   1.00
C6     C     0.12972   0.49458   0.63021   0.00000  Uiso   1.00
C7     C     0.07714   0.35606   0.57762   0.00000  Uiso   1.00
C8     C     0.00570   0.41485   0.50623   0.00000  Uiso   1.00
C9     C     0.88216   0.43686   0.38274   0.00000  Uiso   1.00
C10    C     0.24027   0.56560   0.68986   0.00000  Uiso   1.00
C11    C     0.28062   0.48679   0.68740   0.00000  Uiso   1.00
C12    C     0.30224   0.60538   0.66621   0.00000  Uiso   1.00
C13    C     0.35034   0.73766   0.63534   0.00000  Uiso   1.00
C14    C     0.17767   0.81245   0.67820   0.00000  Uiso   1.00
C15    C     0.22216   0.75586   0.77350   0.00000  Uiso   1.00
C16    C     0.24374   0.87439   0.83787   0.00000  Uiso   1.00
C17    C     0.28416   0.79559   0.92107   0.00000  Uiso   1.00
C18    C     0.11158   0.68506   0.61212   0.00000  Uiso   1.00
C19    C     0.04020   0.74408   0.54078   0.00000  Uiso   1.00
C20    C     0.98753   0.60569   0.48811   0.00000  Uiso   1.00
C21    C     0.22213   0.75609   0.67177   0.00000  Uiso   1.00
C22    C     0.24369   0.87482   0.65057   0.00000  Uiso   1.00
C23    C     0.28407   0.79621   0.64809   0.00000  Uiso   1.00
H24    H     0.22517   0.31343   0.72557   0.00000  Uiso   1.00
H25    H     0.29470   0.33894   0.88868   0.00000  Uiso   1.00
H26    H     0.09119   0.20865   0.59163   0.00000  Uiso   1.00
H27    H     0.29464   0.33938   0.70140   0.00000  Uiso   1.00
H28    H     0.36376   0.45122   0.06152   0.00000  Uiso   1.00
H29    H     0.93466   0.17650   0.43517   0.00000  Uiso   1.00
H30    H     0.36368   0.45215   0.66664   0.00000  Uiso   1.00
H31    H     0.16355   0.96076   0.66411   0.00000  Uiso   1.00
H32    H     0.22970   0.02180   0.82386   0.00000  Uiso   1.00
H33    H     0.02619   0.89150   0.52680   0.00000  Uiso   1.00
H34    H     0.22964   0.02223   0.63658   0.00000  Uiso   1.00
H35    H     0.31101   0.00545   0.00891   0.00000  Uiso   1.00
H36    H     0.88190   0.73073   0.38255   0.00000  Uiso   1.00
H37    H     0.31092   0.00638   0.61402   0.00000  Uiso   1.00
O38    O     0.38199   0.75680   0.14140   0.00000  Uiso   1.00
O39    O     0.81902   0.39637   0.31963   0.00000  Uiso   1.00
O40    O     0.38189   0.75801   0.62332   0.00000  Uiso   1.00
N41    N     0.34228   0.57329   0.02723   0.00000  Uiso   1.00
N42    N     0.94109   0.31644   0.44163   0.00000  Uiso   1.00
N43    N     0.34217   0.57414   0.65801   0.00000  Uiso   1.00
N44    N     0.31390   0.87152   0.99892   0.00000  Uiso   1.00
N45    N     0.91270   0.61467   0.41332   0.00000  Uiso   1.00
N46    N     0.31379   0.87236   0.62970   0.00000  Uiso   1.00
C47    C     0.71105   0.96174   0.71149   0.00000  Uiso   1.00
C48    C     0.74029   0.06537   0.79160   0.00000  Uiso   1.00
C49    C     0.78068   0.98637   0.87471   0.00000  Uiso   1.00
C50    C     0.80232   0.10475   0.93918   0.00000  Uiso   1.00
C51    C     0.85045   0.23667   0.06629   0.00000  Uiso   1.00
C52    C     0.62972   0.99458   0.63021   0.00000  Uiso   1.00
C53    C     0.57714   0.85606   0.57762   0.00000  Uiso   1.00
C54    C     0.50570   0.91485   0.50623   0.00000  Uiso   1.00
C55    C     0.38216   0.93686   0.38274   0.00000  Uiso   1.00
C56    C     0.74027   0.06560   0.68986   0.00000  Uiso   1.00
C57    C     0.78062   0.98679   0.68740   0.00000  Uiso   1.00
C58    C     0.80224   0.10538   0.66621   0.00000  Uiso   1.00
C59    C     0.85034   0.23766   0.63534   0.00000  Uiso   1.00
C60    C     0.67767   0.31245   0.67820   0.00000  Uiso   1.00
C61    C     0.72216   0.25586   0.77350   0.00000  Uiso   1.00
C62    C     0.74374   0.37439   0.83787   0.00000  Uiso   1.00
C63    C     0.78416   0.29559   0.92107   0.00000  Uiso   1.00
C64    C     0.61158   0.18506   0.61212   0.00000  Uiso   1.00
C65    C     0.54020   0.24408   0.54078   0.00000  Uiso   1.00
C66    C     0.48753   0.10569   0.48811   0.00000  Uiso   1.00
C67    C     0.72213   0.25609   0.67177   0.00000  Uiso   1.00
C68    C     0.74369   0.37482   0.65057   0.00000  Uiso   1.00
C69    C     0.78407   0.29621   0.64809   0.00000  Uiso   1.00
H70    H     0.72517   0.81343   0.72557   0.00000  Uiso   1.00
H71    H     0.79470   0.83894   0.88868   0.00000  Uiso   1.00
H72    H     0.59119   0.70865   0.59163   0.00000  Uiso   1.00
H73    H     0.79464   0.83938   0.70140   0.00000  Uiso   1.00
H74    H     0.86376   0.95122   0.06152   0.00000  Uiso   1.00
H75    H     0.43466   0.67650   0.43517   0.00000  Uiso   1.00
H76    H     0.86368   0.95215   0.66664   0.00000  Uiso   1.00
H77    H     0.66355   0.46076   0.66411   0.00000  Uiso   1.00
H78    H     0.72970   0.52180   0.82386   0.00000  Uiso   1.00
H79    H     0.52619   0.39150   0.52680   0.00000  Uiso   1.00
H80    H     0.72964   0.52223   0.63658   0.00000  Uiso   1.00
H81    H     0.81101   0.50545   0.00891   0.00000  Uiso   1.00
H82    H     0.38190   0.23073   0.38255   0.00000  Uiso   1.00
H83    H     0.81092   0.50638   0.61402   0.00000  Uiso   1.00
O84    O     0.88199   0.25680   0.14140   0.00000  Uiso   1.00
O85    O     0.31902   0.89637   0.31963   0.00000  Uiso   1.00
O86    O     0.88189   0.25801   0.62332   0.00000  Uiso   1.00
N87    N     0.84228   0.07329   0.02723   0.00000  Uiso   1.00
N88    N     0.44109   0.81644   0.44163   0.00000  Uiso   1.00
N89    N     0.84217   0.07414   0.65801   0.00000  Uiso   1.00
N90    N     0.81390   0.37152   0.99892   0.00000  Uiso   1.00
N91    N     0.41270   0.11467   0.41332   0.00000  Uiso   1.00
N92    N     0.81379   0.37236   0.62970   0.00000  Uiso   1.00
C93    C     0.21105   0.53826   0.21149   0.00000  Uiso   1.00
C94    C     0.24029   0.43463   0.29160   0.00000  Uiso   1.00
C95    C     0.28068   0.51363   0.37471   0.00000  Uiso   1.00
C96    C     0.30232   0.39525   0.43918   0.00000  Uiso   1.00
C97    C     0.35045   0.26333   0.56629   0.00000  Uiso   1.00
C98    C     0.12972   0.50542   0.13021   0.00000  Uiso   1.00
C99    C     0.07714   0.64394   0.07762   0.00000  Uiso   1.00
C100   C     0.00570   0.58515   0.00623   0.00000  Uiso   1.00
C101   C     0.88216   0.56314   0.88274   0.00000  Uiso   1.00
C102   C     0.24027   0.43440   0.18986   0.00000  Uiso   1.00
C103   C     0.28062   0.51321   0.18740   0.00000  Uiso   1.00
C104   C     0.30224   0.39462   0.16621   0.00000  Uiso   1.00
C105   C     0.35034   0.26234   0.13534   0.00000  Uiso   1.00
C106   C     0.17767   0.18755   0.17820   0.00000  Uiso   1.00
C107   C     0.22216   0.24414   0.27350   0.00000  Uiso   1.00
C108   C     0.24374   0.12561   0.33787   0.00000  Uiso   1.00
C109   C     0.28416   0.20441   0.42107   0.00000  Uiso   1.00
C110   C     0.11158   0.31494   0.11212   0.00000  Uiso   1.00
C111   C     0.04020   0.25592   0.04078   0.00000  Uiso   1.00
C112   C     0.98753   0.39431   0.98811   0.00000  Uiso   1.00
C113   C     0.22213   0.24391   0.17177   0.00000  Uiso   1.00
C114   C     0.24369   0.12518   0.15057   0.00000  Uiso   1.00
C115   C     0.28407   0.20379   0.14809   0.00000  Uiso   1.00
H116   H     0.22517   0.68657   0.22557   0.00000  Uiso   1.00
H117   H     0.29470   0.66106   0.38868   0.00000  Uiso   1.00
H118   H     0.09119   0.79135   0.09163   0.00000  Uiso   1.00
H119   H     0.29464   0.66062   0.20140   0.00000  Uiso   1.00
H120   H     0.36376   0.54878   0.56152   0.00000  Uiso   1.00
H121   H     0.93466   0.82350   0.93517   0.00000  Uiso   1.00
H122   H     0.36368   0.54785   0.16664   0.00000  Uiso   1.00
H123   H     0.16355   0.03924   0.16411   0.00000  Uiso   1.00
H124   H     0.22970   0.97820   0.32386   0.00000  Uiso   1.00
H125   H     0.02619   0.10850   0.02680   0.00000  Uiso   1.00
H126   H     0.22964   0.97777   0.13658   0.00000  Uiso   1.00
H127   H     0.31101   0.99455   0.50891   0.00000  Uiso   1.00
H128   H     0.88190   0.26927   0.88255   0.00000  Uiso   1.00
H129   H     0.31092   0.99362   0.11402   0.00000  Uiso   1.00
O130   O     0.38199   0.24320   0.64140   0.00000  Uiso   1.00
O131   O     0.81902   0.60363   0.81963   0.00000  Uiso   1.00
O132   O     0.38189   0.24199   0.12332   0.00000  Uiso   1.00
N133   N     0.34228   0.42671   0.52723   0.00000  Uiso   1.00
N134   N     0.94109   0.68356   0.94163   0.00000  Uiso   1.00
N135   N     0.34217   0.42586   0.15801   0.00000  Uiso   1.00
N136   N     0.31390   0.12848   0.49892   0.00000  Uiso   1.00
N137   N     0.91270   0.38533   0.91332   0.00000  Uiso   1.00
N138   N     0.31379   0.12764   0.12970   0.00000  Uiso   1.00
C139   C     0.71105   0.03826   0.21149   0.00000  Uiso   1.00
C140   C     0.74029   0.93463   0.29160   0.00000  Uiso   1.00
C141   C     0.78068   0.01363   0.37471   0.00000  Uiso   1.00
C142   C     0.80232   0.89525   0.43918   0.00000  Uiso   1.00
C143   C     0.85045   0.76333   0.56629   0.00000  Uiso   1.00
C144   C     0.62972   0.00542   0.13021   0.00000  Uiso   1.00
C145   C     0.57714   0.14394   0.07762   0.00000  Uiso   1.00
C146   C     0.50570   0.08515   0.00623   0.00000  Uiso   1.00
C147   C     0.38216   0.06314   0.88274   0.00000  Uiso   1.00
C148   C     0.74027   0.93440   0.18986   0.00000  Uiso   1.00
C149   C     0.78062   0.01321   0.18740   0.00000  Uiso   1.00
C150   C     0.80224   0.89462   0.16621   0.00000  Uiso   1.00
C151   C     0.85034   0.76234   0.13534   0.00000  Uiso   1.00
C152   C     0.67767   0.68755   0.17820   0.00000  Uiso   1.00
C153   C     0.72216   0.74414   0.27350   0.00000  Uiso   1.00
C154   C     0.74374   0.62561   0.33787   0.00000  Uiso   1.00
C155   C     0.78416   0.70441   0.42107   0.00000  Uiso   1.00
C156   C     0.61158   0.81494   0.11212   0.00000  Uiso   1.00
C157   C     0.54020   0.75592   0.04078   0.00000  Uiso   1.00
C158   C     0.48753   0.89431   0.98811   0.00000  Uiso   1.00
C159   C     0.72213   0.74391   0.17177   0.00000  Uiso   1.00
C160   C     0.74369   0.62518   0.15057   0.00000  Uiso   1.00
C161   C     0.78407   0.70379   0.14809   0.00000  Uiso   1.00
H162   H     0.72517   0.18657   0.22557   0.00000  Uiso   1.00
H163   H     0.79470   0.16106   0.38868   0.00000  Uiso   1.00
H164   H     0.59119   0.29135   0.09163   0.00000  Uiso   1.00
H165   H     0.79464   0.16062   0.20140   0.00000  Uiso   1.00
H166   H     0.86376   0.04878   0.56152   0.00000  Uiso   1.00
H167   H     0.43466   0.32350   0.93517   0.00000  Uiso   1.00
H168   H     0.86368   0.04785   0.16664   0.00000  Uiso   1.00
H169   H     0.66355   0.53924   0.16411   0.00000  Uiso   1.00
H170   H     0.72970   0.47820   0.32386   0.00000  Uiso   1.00
H171   H     0.52619   0.60850   0.02680   0.00000  Uiso   1.00
H172   H     0.72964   0.47777   0.13658   0.00000  Uiso   1.00
H173   H     0.81101   0.49455   0.50891   0.00000  Uiso   1.00
H174   H     0.38190   0.76927   0.88255   0.00000  Uiso   1.00
H175   H     0.81092   0.49362   0.11402   0.00000  Uiso   1.00
O176   O     0.88199   0.74320   0.64140   0.00000  Uiso   1.00
O177   O     0.31902   0.10363   0.81963   0.00000  Uiso   1.00
O178   O     0.88189   0.74199   0.12332   0.00000  Uiso   1.00
N179   N     0.84228   0.92671   0.52723   0.00000  Uiso   1.00
N180   N     0.44109   0.18356   0.94163   0.00000  Uiso   1.00
N181   N     0.84217   0.92586   0.15801   0.00000  Uiso   1.00
N182   N     0.81390   0.62848   0.49892   0.00000  Uiso   1.00
N183   N     0.41270   0.88533   0.91332   0.00000  Uiso   1.00
N184   N     0.81379   0.62764   0.12970   0.00000  Uiso   1.00
