data_job_00821
_audit_creation_date              2018-12-19
_audit_creation_method            'Materials Studio'
_symmetry_space_group_name_H-M    'P1'
_symmetry_Int_Tables_number       1
_symmetry_cell_setting            triclinic
loop_
_symmetry_equiv_pos_as_xyz
  x,y,z
_cell_length_a                    28.6932
_cell_length_b                    12.4779
_cell_length_c                    25.1456
_cell_angle_alpha                 90.0000
_cell_angle_beta                  159.7938
_cell_angle_gamma                 90.0000
loop_
_atom_site_label
_atom_site_type_symbol
_atom_site_fract_x
_atom_site_fract_y
_atom_site_fract_z
_atom_site_U_iso_or_equiv
_atom_site_adp_type
_atom_site_occupancy
C1     C     0.34556   0.94316   0.73038   0.00000  Uiso   1.00
C2     C     0.49685   0.93979   0.88145   0.00000  Uiso   1.00
C3     C     0.59778   0.96404   0.02584   0.00000  Uiso   1.00
C4     C     0.73007   0.95616   0.14976   0.00000  Uiso   1.00
C5     C     0.96039   0.95571   0.38736   0.00000  Uiso   1.00
C6     C     0.28572   0.01871   0.62487   0.00000  Uiso   1.00
C7     C     0.20912   0.10930   0.55353   0.00000  Uiso   1.00
C8     C     0.16367   0.16783   0.46145   0.00000  Uiso   1.00
C9     C     0.06613   0.28985   0.30062   0.00000  Uiso   1.00
C10    C     0.29212   0.83183   0.65966   0.00000  Uiso   1.00
C11    C     0.22087   0.76529   0.61753   0.00000  Uiso   1.00
C12    C     0.18077   0.66649   0.55470   0.00000  Uiso   1.00
C13    C     0.09317   0.49836   0.44789   0.00000  Uiso   1.00
C14    C     0.40102   0.88603   0.69368   0.00000  Uiso   1.00
C15    C     0.52697   0.90877   0.86151   0.00000  Uiso   1.00
C16    C     0.65914   0.90083   0.98525   0.00000  Uiso   1.00
C17    C     0.76025   0.92507   0.12980   0.00000  Uiso   1.00
C18    C     0.31584   0.98768   0.60494   0.00000  Uiso   1.00
C19    C     0.27048   0.04609   0.51293   0.00000  Uiso   1.00
C20    C     0.19384   0.13674   0.44148   0.00000  Uiso   1.00
C21    C     0.32224   0.80079   0.63973   0.00000  Uiso   1.00
C22    C     0.28224   0.70208   0.57695   0.00000  Uiso   1.00
C23    C     0.21095   0.63541   0.53474   0.00000  Uiso   1.00
H24    H     0.32210   0.96732   0.74589   0.00000  Uiso   1.00
H25    H     0.57442   0.98806   0.04122   0.00000  Uiso   1.00
H26    H     0.18582   0.13328   0.56896   0.00000  Uiso   1.00
H27    H     0.19757   0.78933   0.63297   0.00000  Uiso   1.00
H28    H     0.86745   0.99742   0.35985   0.00000  Uiso   1.00
H29    H     0.04801   0.30360   0.36404   0.00000  Uiso   1.00
H30    H     0.07280   0.57831   0.49900   0.00000  Uiso   1.00
H31    H     0.42447   0.86187   0.67816   0.00000  Uiso   1.00
H32    H     0.68242   0.87682   0.96979   0.00000  Uiso   1.00
H33    H     0.29381   0.02205   0.49753   0.00000  Uiso   1.00
H34    H     0.30557   0.67810   0.56154   0.00000  Uiso   1.00
H35    H     0.95511   0.90713   0.30187   0.00000  Uiso   1.00
H36    H     0.13566   0.21332   0.30605   0.00000  Uiso   1.00
H37    H     0.16045   0.48803   0.44102   0.00000  Uiso   1.00
O38    O     0.07912   0.96405   0.52392   0.00000  Uiso   1.00
O39    O     0.00402   0.36574   0.21742   0.00000  Uiso   1.00
O40    O     0.03655   0.41418   0.39450   0.00000  Uiso   1.00
N41    N     0.85268   0.97409   0.30619   0.00000  Uiso   1.00
N42    N     0.08657   0.26037   0.37518   0.00000  Uiso   1.00
N43    N     0.10971   0.58230   0.50132   0.00000  Uiso   1.00
N44    N     0.89985   0.92551   0.27499   0.00000  Uiso   1.00
N45    N     0.13374   0.21179   0.34398   0.00000  Uiso   1.00
N46    N     0.15688   0.53372   0.47012   0.00000  Uiso   1.00
C47    C     0.65444   0.44316   0.76962   0.00000  Uiso   1.00
C48    C     0.50315   0.43979   0.61855   0.00000  Uiso   1.00
C49    C     0.40222   0.46404   0.47416   0.00000  Uiso   1.00
C50    C     0.26993   0.45616   0.35024   0.00000  Uiso   1.00
C51    C     0.03961   0.45571   0.11264   0.00000  Uiso   1.00
C52    C     0.71428   0.51871   0.87513   0.00000  Uiso   1.00
C53    C     0.79088   0.60930   0.94647   0.00000  Uiso   1.00
C54    C     0.83633   0.66783   0.03855   0.00000  Uiso   1.00
C55    C     0.93387   0.78985   0.19938   0.00000  Uiso   1.00
C56    C     0.70788   0.33183   0.84034   0.00000  Uiso   1.00
C57    C     0.77913   0.26529   0.88247   0.00000  Uiso   1.00
C58    C     0.81923   0.16649   0.94530   0.00000  Uiso   1.00
C59    C     0.90683   0.99836   0.05211   0.00000  Uiso   1.00
C60    C     0.59898   0.38603   0.80632   0.00000  Uiso   1.00
C61    C     0.47303   0.40877   0.63849   0.00000  Uiso   1.00
C62    C     0.34086   0.40083   0.51475   0.00000  Uiso   1.00
C63    C     0.23975   0.42507   0.37020   0.00000  Uiso   1.00
C64    C     0.68416   0.48768   0.89506   0.00000  Uiso   1.00
C65    C     0.72952   0.54609   0.98707   0.00000  Uiso   1.00
C66    C     0.80616   0.63674   0.05852   0.00000  Uiso   1.00
C67    C     0.67776   0.30079   0.86027   0.00000  Uiso   1.00
C68    C     0.71776   0.20208   0.92305   0.00000  Uiso   1.00
C69    C     0.78905   0.13541   0.96526   0.00000  Uiso   1.00
H70    H     0.67790   0.46732   0.75411   0.00000  Uiso   1.00
H71    H     0.42558   0.48806   0.45878   0.00000  Uiso   1.00
H72    H     0.81418   0.63328   0.93104   0.00000  Uiso   1.00
H73    H     0.80243   0.28933   0.86703   0.00000  Uiso   1.00
H74    H     0.13255   0.49742   0.14015   0.00000  Uiso   1.00
H75    H     0.95199   0.80360   0.13596   0.00000  Uiso   1.00
H76    H     0.92720   0.07831   0.00100   0.00000  Uiso   1.00
H77    H     0.57553   0.36187   0.82184   0.00000  Uiso   1.00
H78    H     0.31758   0.37682   0.53021   0.00000  Uiso   1.00
H79    H     0.70619   0.52205   0.00247   0.00000  Uiso   1.00
H80    H     0.69443   0.17810   0.93846   0.00000  Uiso   1.00
H81    H     0.04489   0.40713   0.19813   0.00000  Uiso   1.00
H82    H     0.86434   0.71332   0.19395   0.00000  Uiso   1.00
H83    H     0.83955   0.98803   0.05898   0.00000  Uiso   1.00
O84    O     0.92088   0.46405   0.97608   0.00000  Uiso   1.00
O85    O     0.99598   0.86574   0.28258   0.00000  Uiso   1.00
O86    O     0.96345   0.91418   0.10550   0.00000  Uiso   1.00
N87    N     0.14732   0.47409   0.19381   0.00000  Uiso   1.00
N88    N     0.91343   0.76037   0.12482   0.00000  Uiso   1.00
N89    N     0.89029   0.08230   0.99868   0.00000  Uiso   1.00
N90    N     0.10015   0.42551   0.22501   0.00000  Uiso   1.00
N91    N     0.86626   0.71179   0.15602   0.00000  Uiso   1.00
N92    N     0.84312   0.03372   0.02988   0.00000  Uiso   1.00
C93    C     0.65444   0.05684   0.26962   0.00000  Uiso   1.00
C94    C     0.50315   0.06021   0.11855   0.00000  Uiso   1.00
C95    C     0.40222   0.03596   0.97416   0.00000  Uiso   1.00
C96    C     0.26993   0.04384   0.85024   0.00000  Uiso   1.00
C97    C     0.03961   0.04429   0.61264   0.00000  Uiso   1.00
C98    C     0.71428   0.98129   0.37513   0.00000  Uiso   1.00
C99    C     0.79088   0.89070   0.44647   0.00000  Uiso   1.00
C100   C     0.83633   0.83217   0.53855   0.00000  Uiso   1.00
C101   C     0.93387   0.71015   0.69938   0.00000  Uiso   1.00
C102   C     0.70788   0.16817   0.34034   0.00000  Uiso   1.00
C103   C     0.77913   0.23471   0.38247   0.00000  Uiso   1.00
C104   C     0.81923   0.33351   0.44530   0.00000  Uiso   1.00
C105   C     0.90683   0.50164   0.55211   0.00000  Uiso   1.00
C106   C     0.59898   0.11397   0.30632   0.00000  Uiso   1.00
C107   C     0.47303   0.09123   0.13849   0.00000  Uiso   1.00
C108   C     0.34086   0.09917   0.01475   0.00000  Uiso   1.00
C109   C     0.23975   0.07493   0.87020   0.00000  Uiso   1.00
C110   C     0.68416   0.01232   0.39506   0.00000  Uiso   1.00
C111   C     0.72952   0.95391   0.48707   0.00000  Uiso   1.00
C112   C     0.80616   0.86326   0.55852   0.00000  Uiso   1.00
C113   C     0.67776   0.19921   0.36027   0.00000  Uiso   1.00
C114   C     0.71776   0.29792   0.42305   0.00000  Uiso   1.00
C115   C     0.78905   0.36459   0.46526   0.00000  Uiso   1.00
H116   H     0.67790   0.03268   0.25411   0.00000  Uiso   1.00
H117   H     0.42558   0.01194   0.95878   0.00000  Uiso   1.00
H118   H     0.81418   0.86672   0.43104   0.00000  Uiso   1.00
H119   H     0.80243   0.21067   0.36703   0.00000  Uiso   1.00
H120   H     0.13255   0.00258   0.64015   0.00000  Uiso   1.00
H121   H     0.95199   0.69640   0.63596   0.00000  Uiso   1.00
H122   H     0.92720   0.42169   0.50100   0.00000  Uiso   1.00
H123   H     0.57553   0.13813   0.32184   0.00000  Uiso   1.00
H124   H     0.31758   0.12318   0.03021   0.00000  Uiso   1.00
H125   H     0.70619   0.97795   0.50247   0.00000  Uiso   1.00
H126   H     0.69443   0.32190   0.43846   0.00000  Uiso   1.00
H127   H     0.04489   0.09287   0.69813   0.00000  Uiso   1.00
H128   H     0.86434   0.78668   0.69395   0.00000  Uiso   1.00
H129   H     0.83955   0.51197   0.55898   0.00000  Uiso   1.00
O130   O     0.92088   0.03595   0.47608   0.00000  Uiso   1.00
O131   O     0.99598   0.63426   0.78258   0.00000  Uiso   1.00
O132   O     0.96345   0.58582   0.60550   0.00000  Uiso   1.00
N133   N     0.14732   0.02591   0.69381   0.00000  Uiso   1.00
N134   N     0.91343   0.73963   0.62482   0.00000  Uiso   1.00
N135   N     0.89029   0.41770   0.49868   0.00000  Uiso   1.00
N136   N     0.10015   0.07449   0.72501   0.00000  Uiso   1.00
N137   N     0.86626   0.78821   0.65602   0.00000  Uiso   1.00
N138   N     0.84312   0.46628   0.52988   0.00000  Uiso   1.00
C139   C     0.34556   0.55684   0.23038   0.00000  Uiso   1.00
C140   C     0.49685   0.56021   0.38145   0.00000  Uiso   1.00
C141   C     0.59778   0.53596   0.52584   0.00000  Uiso   1.00
C142   C     0.73007   0.54384   0.64976   0.00000  Uiso   1.00
C143   C     0.96039   0.54429   0.88736   0.00000  Uiso   1.00
C144   C     0.28572   0.48129   0.12487   0.00000  Uiso   1.00
C145   C     0.20912   0.39070   0.05353   0.00000  Uiso   1.00
C146   C     0.16367   0.33217   0.96145   0.00000  Uiso   1.00
C147   C     0.06613   0.21015   0.80062   0.00000  Uiso   1.00
C148   C     0.29212   0.66817   0.15966   0.00000  Uiso   1.00
C149   C     0.22087   0.73471   0.11753   0.00000  Uiso   1.00
C150   C     0.18077   0.83351   0.05470   0.00000  Uiso   1.00
C151   C     0.09317   0.00164   0.94789   0.00000  Uiso   1.00
C152   C     0.40102   0.61397   0.19368   0.00000  Uiso   1.00
C153   C     0.52697   0.59123   0.36151   0.00000  Uiso   1.00
C154   C     0.65914   0.59917   0.48525   0.00000  Uiso   1.00
C155   C     0.76025   0.57493   0.62980   0.00000  Uiso   1.00
C156   C     0.31584   0.51232   0.10494   0.00000  Uiso   1.00
C157   C     0.27048   0.45391   0.01293   0.00000  Uiso   1.00
C158   C     0.19384   0.36326   0.94148   0.00000  Uiso   1.00
C159   C     0.32224   0.69921   0.13973   0.00000  Uiso   1.00
C160   C     0.28224   0.79792   0.07695   0.00000  Uiso   1.00
C161   C     0.21095   0.86459   0.03474   0.00000  Uiso   1.00
H162   H     0.32210   0.53268   0.24589   0.00000  Uiso   1.00
H163   H     0.57442   0.51194   0.54122   0.00000  Uiso   1.00
H164   H     0.18582   0.36672   0.06896   0.00000  Uiso   1.00
H165   H     0.19757   0.71067   0.13297   0.00000  Uiso   1.00
H166   H     0.86745   0.50258   0.85985   0.00000  Uiso   1.00
H167   H     0.04801   0.19640   0.86404   0.00000  Uiso   1.00
H168   H     0.07280   0.92169   0.99900   0.00000  Uiso   1.00
H169   H     0.42447   0.63813   0.17816   0.00000  Uiso   1.00
H170   H     0.68242   0.62318   0.46979   0.00000  Uiso   1.00
H171   H     0.29381   0.47795   0.99753   0.00000  Uiso   1.00
H172   H     0.30557   0.82190   0.06154   0.00000  Uiso   1.00
H173   H     0.95511   0.59287   0.80187   0.00000  Uiso   1.00
H174   H     0.13566   0.28668   0.80605   0.00000  Uiso   1.00
H175   H     0.16045   0.01197   0.94102   0.00000  Uiso   1.00
O176   O     0.07912   0.53595   0.02392   0.00000  Uiso   1.00
O177   O     0.00402   0.13426   0.71742   0.00000  Uiso   1.00
O178   O     0.03655   0.08582   0.89450   0.00000  Uiso   1.00
N179   N     0.85268   0.52591   0.80619   0.00000  Uiso   1.00
N180   N     0.08657   0.23963   0.87518   0.00000  Uiso   1.00
N181   N     0.10971   0.91770   0.00132   0.00000  Uiso   1.00
N182   N     0.89985   0.57449   0.77499   0.00000  Uiso   1.00
N183   N     0.13374   0.28821   0.84398   0.00000  Uiso   1.00
N184   N     0.15688   0.96628   0.97012   0.00000  Uiso   1.00
