data_job_05605
_audit_creation_date              2018-12-19
_audit_creation_method            'Materials Studio'
_symmetry_space_group_name_H-M    'P1'
_symmetry_Int_Tables_number       1
_symmetry_cell_setting            triclinic
loop_
_symmetry_equiv_pos_as_xyz
  x,y,z
_cell_length_a                    14.6334
_cell_length_b                    21.8169
_cell_length_c                    21.1266
_cell_angle_alpha                 90.0000
_cell_angle_beta                  90.0000
_cell_angle_gamma                 90.0000
loop_
_atom_site_label
_atom_site_type_symbol
_atom_site_fract_x
_atom_site_fract_y
_atom_site_fract_z
_atom_site_U_iso_or_equiv
_atom_site_adp_type
_atom_site_occupancy
C1     C     0.60274   0.32435   0.45179   0.00000  Uiso   1.00
C2     C     0.58418   0.25640   0.46281   0.00000  Uiso   1.00
C3     C     0.63325   0.21825   0.50290   0.00000  Uiso   1.00
C4     C     0.60551   0.15749   0.50639   0.00000  Uiso   1.00
C5     C     0.58799   0.05529   0.52886   0.00000  Uiso   1.00
C6     C     0.61671   0.33167   0.38066   0.00000  Uiso   1.00
C7     C     0.69313   0.35682   0.35169   0.00000  Uiso   1.00
C8     C     0.69276   0.35942   0.28602   0.00000  Uiso   1.00
C9     C     0.72573   0.37413   0.18096   0.00000  Uiso   1.00
C10    C     0.51378   0.35751   0.46728   0.00000  Uiso   1.00
C11    C     0.50366   0.40439   0.51112   0.00000  Uiso   1.00
C12    C     0.41663   0.42876   0.51837   0.00000  Uiso   1.00
C13    C     0.28978   0.48357   0.54780   0.00000  Uiso   1.00
C14    C     0.46621   0.28428   0.38669   0.00000  Uiso   1.00
C15    C     0.51002   0.23464   0.42745   0.00000  Uiso   1.00
C16    C     0.48219   0.17392   0.43088   0.00000  Uiso   1.00
C17    C     0.53121   0.13569   0.47097   0.00000  Uiso   1.00
C18    C     0.54255   0.30991   0.34530   0.00000  Uiso   1.00
C19    C     0.54207   0.31249   0.27966   0.00000  Uiso   1.00
C20    C     0.61847   0.33762   0.25060   0.00000  Uiso   1.00
C21    C     0.43962   0.33575   0.43192   0.00000  Uiso   1.00
C22    C     0.35260   0.36005   0.43910   0.00000  Uiso   1.00
C23    C     0.34234   0.40696   0.48295   0.00000  Uiso   1.00
H24    H     0.66048   0.34129   0.47931   0.00000  Uiso   1.00
H25    H     0.69064   0.23511   0.53025   0.00000  Uiso   1.00
H26    H     0.75051   0.37366   0.37906   0.00000  Uiso   1.00
H27    H     0.56106   0.42122   0.53848   0.00000  Uiso   1.00
H28    H     0.69140   0.10778   0.57112   0.00000  Uiso   1.00
H29    H     0.81761   0.39994   0.25233   0.00000  Uiso   1.00
H30    H     0.41813   0.50023   0.58848   0.00000  Uiso   1.00
H31    H     0.40847   0.26734   0.35916   0.00000  Uiso   1.00
H32    H     0.42480   0.15709   0.40351   0.00000  Uiso   1.00
H33    H     0.48467   0.29564   0.25232   0.00000  Uiso   1.00
H34    H     0.29522   0.34320   0.41173   0.00000  Uiso   1.00
H35    H     0.47563   0.04446   0.46825   0.00000  Uiso   1.00
H36    H     0.60185   0.33662   0.14945   0.00000  Uiso   1.00
H37    H     0.20236   0.43691   0.48561   0.00000  Uiso   1.00
O38    O     0.59882   0.00493   0.55101   0.00000  Uiso   1.00
O39    O     0.76440   0.38824   0.13277   0.00000  Uiso   1.00
O40    O     0.24030   0.51982   0.57380   0.00000  Uiso   1.00
N41    N     0.63836   0.10801   0.54083   0.00000  Uiso   1.00
N42    N     0.75637   0.38116   0.24278   0.00000  Uiso   1.00
N43    N     0.38290   0.47493   0.55704   0.00000  Uiso   1.00
N44    N     0.52226   0.07394   0.48548   0.00000  Uiso   1.00
N45    N     0.64027   0.34708   0.18743   0.00000  Uiso   1.00
N46    N     0.26679   0.44086   0.50169   0.00000  Uiso   1.00
C47    C     0.89726   0.17565   0.45179   0.00000  Uiso   1.00
C48    C     0.91582   0.24360   0.46281   0.00000  Uiso   1.00
C49    C     0.86675   0.28175   0.50290   0.00000  Uiso   1.00
C50    C     0.89449   0.34251   0.50639   0.00000  Uiso   1.00
C51    C     0.91201   0.44471   0.52886   0.00000  Uiso   1.00
C52    C     0.88329   0.16833   0.38066   0.00000  Uiso   1.00
C53    C     0.80687   0.14318   0.35169   0.00000  Uiso   1.00
C54    C     0.80724   0.14058   0.28602   0.00000  Uiso   1.00
C55    C     0.77427   0.12587   0.18096   0.00000  Uiso   1.00
C56    C     0.98622   0.14249   0.46728   0.00000  Uiso   1.00
C57    C     0.99634   0.09561   0.51112   0.00000  Uiso   1.00
C58    C     0.08337   0.07124   0.51837   0.00000  Uiso   1.00
C59    C     0.21022   0.01643   0.54780   0.00000  Uiso   1.00
C60    C     0.03379   0.21572   0.38669   0.00000  Uiso   1.00
C61    C     0.98998   0.26536   0.42745   0.00000  Uiso   1.00
C62    C     0.01781   0.32608   0.43088   0.00000  Uiso   1.00
C63    C     0.96879   0.36431   0.47097   0.00000  Uiso   1.00
C64    C     0.95745   0.19009   0.34530   0.00000  Uiso   1.00
C65    C     0.95793   0.18751   0.27966   0.00000  Uiso   1.00
C66    C     0.88153   0.16238   0.25060   0.00000  Uiso   1.00
C67    C     0.06038   0.16425   0.43192   0.00000  Uiso   1.00
C68    C     0.14740   0.13995   0.43910   0.00000  Uiso   1.00
C69    C     0.15766   0.09304   0.48295   0.00000  Uiso   1.00
H70    H     0.83952   0.15871   0.47931   0.00000  Uiso   1.00
H71    H     0.80936   0.26489   0.53025   0.00000  Uiso   1.00
H72    H     0.74949   0.12634   0.37906   0.00000  Uiso   1.00
H73    H     0.93894   0.07878   0.53848   0.00000  Uiso   1.00
H74    H     0.80860   0.39222   0.57112   0.00000  Uiso   1.00
H75    H     0.68239   0.10006   0.25233   0.00000  Uiso   1.00
H76    H     0.08187   0.99977   0.58848   0.00000  Uiso   1.00
H77    H     0.09153   0.23266   0.35916   0.00000  Uiso   1.00
H78    H     0.07520   0.34291   0.40351   0.00000  Uiso   1.00
H79    H     0.01533   0.20436   0.25232   0.00000  Uiso   1.00
H80    H     0.20478   0.15680   0.41173   0.00000  Uiso   1.00
H81    H     0.02437   0.45554   0.46825   0.00000  Uiso   1.00
H82    H     0.89815   0.16338   0.14945   0.00000  Uiso   1.00
H83    H     0.29764   0.06309   0.48561   0.00000  Uiso   1.00
O84    O     0.90118   0.49507   0.55101   0.00000  Uiso   1.00
O85    O     0.73560   0.11176   0.13277   0.00000  Uiso   1.00
O86    O     0.25970   0.98018   0.57380   0.00000  Uiso   1.00
N87    N     0.86164   0.39199   0.54083   0.00000  Uiso   1.00
N88    N     0.74363   0.11884   0.24278   0.00000  Uiso   1.00
N89    N     0.11710   0.02507   0.55704   0.00000  Uiso   1.00
N90    N     0.97774   0.42606   0.48548   0.00000  Uiso   1.00
N91    N     0.85973   0.15292   0.18743   0.00000  Uiso   1.00
N92    N     0.23321   0.05914   0.50169   0.00000  Uiso   1.00
C93    C     0.39726   0.82435   0.04821   0.00000  Uiso   1.00
C94    C     0.41582   0.75640   0.03719   0.00000  Uiso   1.00
C95    C     0.36675   0.71825   0.99710   0.00000  Uiso   1.00
C96    C     0.39449   0.65749   0.99361   0.00000  Uiso   1.00
C97    C     0.41201   0.55529   0.97114   0.00000  Uiso   1.00
C98    C     0.38329   0.83167   0.11934   0.00000  Uiso   1.00
C99    C     0.30687   0.85682   0.14831   0.00000  Uiso   1.00
C100   C     0.30724   0.85942   0.21398   0.00000  Uiso   1.00
C101   C     0.27427   0.87413   0.31904   0.00000  Uiso   1.00
C102   C     0.48622   0.85751   0.03272   0.00000  Uiso   1.00
C103   C     0.49634   0.90439   0.98888   0.00000  Uiso   1.00
C104   C     0.58337   0.92876   0.98163   0.00000  Uiso   1.00
C105   C     0.71022   0.98357   0.95220   0.00000  Uiso   1.00
C106   C     0.53379   0.78428   0.11331   0.00000  Uiso   1.00
C107   C     0.48998   0.73464   0.07255   0.00000  Uiso   1.00
C108   C     0.51781   0.67392   0.06912   0.00000  Uiso   1.00
C109   C     0.46879   0.63569   0.02903   0.00000  Uiso   1.00
C110   C     0.45745   0.80991   0.15470   0.00000  Uiso   1.00
C111   C     0.45793   0.81249   0.22034   0.00000  Uiso   1.00
C112   C     0.38153   0.83762   0.24940   0.00000  Uiso   1.00
C113   C     0.56038   0.83575   0.06808   0.00000  Uiso   1.00
C114   C     0.64740   0.86005   0.06090   0.00000  Uiso   1.00
C115   C     0.65766   0.90696   0.01705   0.00000  Uiso   1.00
H116   H     0.33952   0.84129   0.02069   0.00000  Uiso   1.00
H117   H     0.30936   0.73511   0.96975   0.00000  Uiso   1.00
H118   H     0.24949   0.87366   0.12094   0.00000  Uiso   1.00
H119   H     0.43894   0.92122   0.96152   0.00000  Uiso   1.00
H120   H     0.30860   0.60778   0.92888   0.00000  Uiso   1.00
H121   H     0.18239   0.89994   0.24767   0.00000  Uiso   1.00
H122   H     0.58187   0.00023   0.91152   0.00000  Uiso   1.00
H123   H     0.59153   0.76734   0.14084   0.00000  Uiso   1.00
H124   H     0.57520   0.65709   0.09649   0.00000  Uiso   1.00
H125   H     0.51533   0.79564   0.24768   0.00000  Uiso   1.00
H126   H     0.70478   0.84320   0.08827   0.00000  Uiso   1.00
H127   H     0.52437   0.54446   0.03175   0.00000  Uiso   1.00
H128   H     0.39815   0.83662   0.35055   0.00000  Uiso   1.00
H129   H     0.79764   0.93691   0.01439   0.00000  Uiso   1.00
O130   O     0.40118   0.50493   0.94899   0.00000  Uiso   1.00
O131   O     0.23560   0.88824   0.36723   0.00000  Uiso   1.00
O132   O     0.75970   0.01982   0.92620   0.00000  Uiso   1.00
N133   N     0.36164   0.60801   0.95917   0.00000  Uiso   1.00
N134   N     0.24363   0.88116   0.25722   0.00000  Uiso   1.00
N135   N     0.61710   0.97493   0.94296   0.00000  Uiso   1.00
N136   N     0.47774   0.57394   0.01452   0.00000  Uiso   1.00
N137   N     0.35973   0.84708   0.31257   0.00000  Uiso   1.00
N138   N     0.73321   0.94086   0.99831   0.00000  Uiso   1.00
C139   C     0.10274   0.67565   0.04821   0.00000  Uiso   1.00
C140   C     0.08418   0.74360   0.03719   0.00000  Uiso   1.00
C141   C     0.13325   0.78175   0.99710   0.00000  Uiso   1.00
C142   C     0.10551   0.84251   0.99361   0.00000  Uiso   1.00
C143   C     0.08799   0.94471   0.97114   0.00000  Uiso   1.00
C144   C     0.11671   0.66833   0.11934   0.00000  Uiso   1.00
C145   C     0.19313   0.64318   0.14831   0.00000  Uiso   1.00
C146   C     0.19276   0.64058   0.21398   0.00000  Uiso   1.00
C147   C     0.22573   0.62587   0.31904   0.00000  Uiso   1.00
C148   C     0.01378   0.64249   0.03272   0.00000  Uiso   1.00
C149   C     0.00366   0.59561   0.98888   0.00000  Uiso   1.00
C150   C     0.91663   0.57124   0.98163   0.00000  Uiso   1.00
C151   C     0.78978   0.51643   0.95220   0.00000  Uiso   1.00
C152   C     0.96621   0.71572   0.11331   0.00000  Uiso   1.00
C153   C     0.01002   0.76536   0.07255   0.00000  Uiso   1.00
C154   C     0.98219   0.82608   0.06912   0.00000  Uiso   1.00
C155   C     0.03121   0.86431   0.02903   0.00000  Uiso   1.00
C156   C     0.04255   0.69009   0.15470   0.00000  Uiso   1.00
C157   C     0.04207   0.68751   0.22034   0.00000  Uiso   1.00
C158   C     0.11847   0.66238   0.24940   0.00000  Uiso   1.00
C159   C     0.93962   0.66425   0.06808   0.00000  Uiso   1.00
C160   C     0.85260   0.63995   0.06090   0.00000  Uiso   1.00
C161   C     0.84234   0.59304   0.01705   0.00000  Uiso   1.00
H162   H     0.16048   0.65871   0.02069   0.00000  Uiso   1.00
H163   H     0.19064   0.76489   0.96975   0.00000  Uiso   1.00
H164   H     0.25051   0.62634   0.12094   0.00000  Uiso   1.00
H165   H     0.06106   0.57878   0.96152   0.00000  Uiso   1.00
H166   H     0.19140   0.89222   0.92888   0.00000  Uiso   1.00
H167   H     0.31761   0.60006   0.24767   0.00000  Uiso   1.00
H168   H     0.91813   0.49977   0.91152   0.00000  Uiso   1.00
H169   H     0.90847   0.73266   0.14084   0.00000  Uiso   1.00
H170   H     0.92480   0.84291   0.09649   0.00000  Uiso   1.00
H171   H     0.98467   0.70436   0.24768   0.00000  Uiso   1.00
H172   H     0.79522   0.65680   0.08827   0.00000  Uiso   1.00
H173   H     0.97563   0.95554   0.03175   0.00000  Uiso   1.00
H174   H     0.10185   0.66338   0.35055   0.00000  Uiso   1.00
H175   H     0.70236   0.56309   0.01439   0.00000  Uiso   1.00
O176   O     0.09882   0.99507   0.94899   0.00000  Uiso   1.00
O177   O     0.26440   0.61176   0.36723   0.00000  Uiso   1.00
O178   O     0.74030   0.48018   0.92620   0.00000  Uiso   1.00
N179   N     0.13836   0.89199   0.95917   0.00000  Uiso   1.00
N180   N     0.25637   0.61884   0.25722   0.00000  Uiso   1.00
N181   N     0.88290   0.52507   0.94296   0.00000  Uiso   1.00
N182   N     0.02226   0.92606   0.01452   0.00000  Uiso   1.00
N183   N     0.14027   0.65292   0.31257   0.00000  Uiso   1.00
N184   N     0.76679   0.55914   0.99831   0.00000  Uiso   1.00
C185   C     0.39726   0.67565   0.54821   0.00000  Uiso   1.00
C186   C     0.41582   0.74360   0.53719   0.00000  Uiso   1.00
C187   C     0.36675   0.78175   0.49710   0.00000  Uiso   1.00
C188   C     0.39449   0.84251   0.49361   0.00000  Uiso   1.00
C189   C     0.41201   0.94471   0.47114   0.00000  Uiso   1.00
C190   C     0.38329   0.66833   0.61934   0.00000  Uiso   1.00
C191   C     0.30687   0.64318   0.64831   0.00000  Uiso   1.00
C192   C     0.30724   0.64058   0.71398   0.00000  Uiso   1.00
C193   C     0.27427   0.62587   0.81904   0.00000  Uiso   1.00
C194   C     0.48622   0.64249   0.53272   0.00000  Uiso   1.00
C195   C     0.49634   0.59561   0.48888   0.00000  Uiso   1.00
C196   C     0.58337   0.57124   0.48163   0.00000  Uiso   1.00
C197   C     0.71022   0.51643   0.45220   0.00000  Uiso   1.00
C198   C     0.53379   0.71572   0.61331   0.00000  Uiso   1.00
C199   C     0.48998   0.76536   0.57255   0.00000  Uiso   1.00
C200   C     0.51781   0.82608   0.56912   0.00000  Uiso   1.00
C201   C     0.46879   0.86431   0.52903   0.00000  Uiso   1.00
C202   C     0.45745   0.69009   0.65470   0.00000  Uiso   1.00
C203   C     0.45793   0.68751   0.72034   0.00000  Uiso   1.00
C204   C     0.38153   0.66238   0.74940   0.00000  Uiso   1.00
C205   C     0.56038   0.66425   0.56808   0.00000  Uiso   1.00
C206   C     0.64740   0.63995   0.56090   0.00000  Uiso   1.00
C207   C     0.65766   0.59304   0.51705   0.00000  Uiso   1.00
H208   H     0.33952   0.65871   0.52069   0.00000  Uiso   1.00
H209   H     0.30936   0.76489   0.46975   0.00000  Uiso   1.00
H210   H     0.24949   0.62634   0.62094   0.00000  Uiso   1.00
H211   H     0.43894   0.57878   0.46152   0.00000  Uiso   1.00
H212   H     0.30860   0.89222   0.42888   0.00000  Uiso   1.00
H213   H     0.18239   0.60006   0.74767   0.00000  Uiso   1.00
H214   H     0.58187   0.49977   0.41152   0.00000  Uiso   1.00
H215   H     0.59153   0.73266   0.64084   0.00000  Uiso   1.00
H216   H     0.57520   0.84291   0.59649   0.00000  Uiso   1.00
H217   H     0.51533   0.70436   0.74768   0.00000  Uiso   1.00
H218   H     0.70478   0.65680   0.58827   0.00000  Uiso   1.00
H219   H     0.52437   0.95554   0.53175   0.00000  Uiso   1.00
H220   H     0.39815   0.66338   0.85055   0.00000  Uiso   1.00
H221   H     0.79764   0.56309   0.51439   0.00000  Uiso   1.00
O222   O     0.40118   0.99507   0.44899   0.00000  Uiso   1.00
O223   O     0.23560   0.61176   0.86723   0.00000  Uiso   1.00
O224   O     0.75970   0.48018   0.42620   0.00000  Uiso   1.00
N225   N     0.36164   0.89199   0.45917   0.00000  Uiso   1.00
N226   N     0.24363   0.61884   0.75722   0.00000  Uiso   1.00
N227   N     0.61710   0.52507   0.44296   0.00000  Uiso   1.00
N228   N     0.47774   0.92606   0.51452   0.00000  Uiso   1.00
N229   N     0.35973   0.65292   0.81257   0.00000  Uiso   1.00
N230   N     0.73321   0.55914   0.49831   0.00000  Uiso   1.00
C231   C     0.10274   0.82435   0.54821   0.00000  Uiso   1.00
C232   C     0.08418   0.75640   0.53719   0.00000  Uiso   1.00
C233   C     0.13325   0.71825   0.49710   0.00000  Uiso   1.00
C234   C     0.10551   0.65749   0.49361   0.00000  Uiso   1.00
C235   C     0.08799   0.55529   0.47114   0.00000  Uiso   1.00
C236   C     0.11671   0.83167   0.61934   0.00000  Uiso   1.00
C237   C     0.19313   0.85682   0.64831   0.00000  Uiso   1.00
C238   C     0.19276   0.85942   0.71398   0.00000  Uiso   1.00
C239   C     0.22573   0.87413   0.81904   0.00000  Uiso   1.00
C240   C     0.01378   0.85751   0.53272   0.00000  Uiso   1.00
C241   C     0.00366   0.90439   0.48888   0.00000  Uiso   1.00
C242   C     0.91663   0.92876   0.48163   0.00000  Uiso   1.00
C243   C     0.78978   0.98357   0.45220   0.00000  Uiso   1.00
C244   C     0.96621   0.78428   0.61331   0.00000  Uiso   1.00
C245   C     0.01002   0.73464   0.57255   0.00000  Uiso   1.00
C246   C     0.98219   0.67392   0.56912   0.00000  Uiso   1.00
C247   C     0.03121   0.63569   0.52903   0.00000  Uiso   1.00
C248   C     0.04255   0.80991   0.65470   0.00000  Uiso   1.00
C249   C     0.04207   0.81249   0.72034   0.00000  Uiso   1.00
C250   C     0.11847   0.83762   0.74940   0.00000  Uiso   1.00
C251   C     0.93962   0.83575   0.56808   0.00000  Uiso   1.00
C252   C     0.85260   0.86005   0.56090   0.00000  Uiso   1.00
C253   C     0.84234   0.90696   0.51705   0.00000  Uiso   1.00
H254   H     0.16048   0.84129   0.52069   0.00000  Uiso   1.00
H255   H     0.19064   0.73511   0.46975   0.00000  Uiso   1.00
H256   H     0.25051   0.87366   0.62094   0.00000  Uiso   1.00
H257   H     0.06106   0.92122   0.46152   0.00000  Uiso   1.00
H258   H     0.19140   0.60778   0.42888   0.00000  Uiso   1.00
H259   H     0.31761   0.89994   0.74767   0.00000  Uiso   1.00
H260   H     0.91813   0.00023   0.41152   0.00000  Uiso   1.00
H261   H     0.90847   0.76734   0.64084   0.00000  Uiso   1.00
H262   H     0.92480   0.65709   0.59649   0.00000  Uiso   1.00
H263   H     0.98467   0.79564   0.74768   0.00000  Uiso   1.00
H264   H     0.79522   0.84320   0.58827   0.00000  Uiso   1.00
H265   H     0.97563   0.54446   0.53175   0.00000  Uiso   1.00
H266   H     0.10185   0.83662   0.85055   0.00000  Uiso   1.00
H267   H     0.70236   0.93691   0.51439   0.00000  Uiso   1.00
O268   O     0.09882   0.50493   0.44899   0.00000  Uiso   1.00
O269   O     0.26440   0.88824   0.86723   0.00000  Uiso   1.00
O270   O     0.74030   0.01982   0.42620   0.00000  Uiso   1.00
N271   N     0.13836   0.60801   0.45917   0.00000  Uiso   1.00
N272   N     0.25637   0.88116   0.75722   0.00000  Uiso   1.00
N273   N     0.88290   0.97493   0.44296   0.00000  Uiso   1.00
N274   N     0.02226   0.57394   0.51452   0.00000  Uiso   1.00
N275   N     0.14027   0.84708   0.81257   0.00000  Uiso   1.00
N276   N     0.76679   0.94086   0.49831   0.00000  Uiso   1.00
C277   C     0.60274   0.17565   0.95179   0.00000  Uiso   1.00
C278   C     0.58418   0.24360   0.96281   0.00000  Uiso   1.00
C279   C     0.63325   0.28175   0.00290   0.00000  Uiso   1.00
C280   C     0.60551   0.34251   0.00639   0.00000  Uiso   1.00
C281   C     0.58799   0.44471   0.02886   0.00000  Uiso   1.00
C282   C     0.61671   0.16833   0.88066   0.00000  Uiso   1.00
C283   C     0.69313   0.14318   0.85169   0.00000  Uiso   1.00
C284   C     0.69276   0.14058   0.78602   0.00000  Uiso   1.00
C285   C     0.72573   0.12587   0.68096   0.00000  Uiso   1.00
C286   C     0.51378   0.14249   0.96728   0.00000  Uiso   1.00
C287   C     0.50366   0.09561   0.01112   0.00000  Uiso   1.00
C288   C     0.41663   0.07124   0.01837   0.00000  Uiso   1.00
C289   C     0.28978   0.01643   0.04780   0.00000  Uiso   1.00
C290   C     0.46621   0.21572   0.88669   0.00000  Uiso   1.00
C291   C     0.51002   0.26536   0.92745   0.00000  Uiso   1.00
C292   C     0.48219   0.32608   0.93088   0.00000  Uiso   1.00
C293   C     0.53121   0.36431   0.97097   0.00000  Uiso   1.00
C294   C     0.54255   0.19009   0.84530   0.00000  Uiso   1.00
C295   C     0.54207   0.18751   0.77966   0.00000  Uiso   1.00
C296   C     0.61847   0.16238   0.75060   0.00000  Uiso   1.00
C297   C     0.43962   0.16425   0.93192   0.00000  Uiso   1.00
C298   C     0.35260   0.13995   0.93910   0.00000  Uiso   1.00
C299   C     0.34234   0.09304   0.98295   0.00000  Uiso   1.00
H300   H     0.66048   0.15871   0.97931   0.00000  Uiso   1.00
H301   H     0.69064   0.26489   0.03025   0.00000  Uiso   1.00
H302   H     0.75051   0.12634   0.87906   0.00000  Uiso   1.00
H303   H     0.56106   0.07878   0.03848   0.00000  Uiso   1.00
H304   H     0.69140   0.39222   0.07112   0.00000  Uiso   1.00
H305   H     0.81761   0.10006   0.75233   0.00000  Uiso   1.00
H306   H     0.41813   0.99977   0.08848   0.00000  Uiso   1.00
H307   H     0.40847   0.23266   0.85916   0.00000  Uiso   1.00
H308   H     0.42480   0.34291   0.90351   0.00000  Uiso   1.00
H309   H     0.48467   0.20436   0.75232   0.00000  Uiso   1.00
H310   H     0.29522   0.15680   0.91173   0.00000  Uiso   1.00
H311   H     0.47563   0.45554   0.96825   0.00000  Uiso   1.00
H312   H     0.60185   0.16338   0.64945   0.00000  Uiso   1.00
H313   H     0.20236   0.06309   0.98561   0.00000  Uiso   1.00
O314   O     0.59882   0.49507   0.05101   0.00000  Uiso   1.00
O315   O     0.76440   0.11176   0.63277   0.00000  Uiso   1.00
O316   O     0.24030   0.98018   0.07380   0.00000  Uiso   1.00
N317   N     0.63836   0.39199   0.04083   0.00000  Uiso   1.00
N318   N     0.75637   0.11884   0.74278   0.00000  Uiso   1.00
N319   N     0.38290   0.02507   0.05704   0.00000  Uiso   1.00
N320   N     0.52226   0.42606   0.98548   0.00000  Uiso   1.00
N321   N     0.64027   0.15292   0.68743   0.00000  Uiso   1.00
N322   N     0.26679   0.05914   0.00169   0.00000  Uiso   1.00
C323   C     0.89726   0.32435   0.95179   0.00000  Uiso   1.00
C324   C     0.91582   0.25640   0.96281   0.00000  Uiso   1.00
C325   C     0.86675   0.21825   0.00290   0.00000  Uiso   1.00
C326   C     0.89449   0.15749   0.00639   0.00000  Uiso   1.00
C327   C     0.91201   0.05529   0.02886   0.00000  Uiso   1.00
C328   C     0.88329   0.33167   0.88066   0.00000  Uiso   1.00
C329   C     0.80687   0.35682   0.85169   0.00000  Uiso   1.00
C330   C     0.80724   0.35942   0.78602   0.00000  Uiso   1.00
C331   C     0.77427   0.37413   0.68096   0.00000  Uiso   1.00
C332   C     0.98622   0.35751   0.96728   0.00000  Uiso   1.00
C333   C     0.99634   0.40439   0.01112   0.00000  Uiso   1.00
C334   C     0.08337   0.42876   0.01837   0.00000  Uiso   1.00
C335   C     0.21022   0.48357   0.04780   0.00000  Uiso   1.00
C336   C     0.03379   0.28428   0.88669   0.00000  Uiso   1.00
C337   C     0.98998   0.23464   0.92745   0.00000  Uiso   1.00
C338   C     0.01781   0.17392   0.93088   0.00000  Uiso   1.00
C339   C     0.96879   0.13569   0.97097   0.00000  Uiso   1.00
C340   C     0.95745   0.30991   0.84530   0.00000  Uiso   1.00
C341   C     0.95793   0.31249   0.77966   0.00000  Uiso   1.00
C342   C     0.88153   0.33762   0.75060   0.00000  Uiso   1.00
C343   C     0.06038   0.33575   0.93192   0.00000  Uiso   1.00
C344   C     0.14740   0.36005   0.93910   0.00000  Uiso   1.00
C345   C     0.15766   0.40696   0.98295   0.00000  Uiso   1.00
H346   H     0.83952   0.34129   0.97931   0.00000  Uiso   1.00
H347   H     0.80936   0.23511   0.03025   0.00000  Uiso   1.00
H348   H     0.74949   0.37366   0.87906   0.00000  Uiso   1.00
H349   H     0.93894   0.42122   0.03848   0.00000  Uiso   1.00
H350   H     0.80860   0.10778   0.07112   0.00000  Uiso   1.00
H351   H     0.68239   0.39994   0.75233   0.00000  Uiso   1.00
H352   H     0.08187   0.50023   0.08848   0.00000  Uiso   1.00
H353   H     0.09153   0.26734   0.85916   0.00000  Uiso   1.00
H354   H     0.07520   0.15709   0.90351   0.00000  Uiso   1.00
H355   H     0.01533   0.29564   0.75232   0.00000  Uiso   1.00
H356   H     0.20478   0.34320   0.91173   0.00000  Uiso   1.00
H357   H     0.02437   0.04446   0.96825   0.00000  Uiso   1.00
H358   H     0.89815   0.33662   0.64945   0.00000  Uiso   1.00
H359   H     0.29764   0.43691   0.98561   0.00000  Uiso   1.00
O360   O     0.90118   0.00493   0.05101   0.00000  Uiso   1.00
O361   O     0.73560   0.38824   0.63277   0.00000  Uiso   1.00
O362   O     0.25970   0.51982   0.07380   0.00000  Uiso   1.00
N363   N     0.86164   0.10801   0.04083   0.00000  Uiso   1.00
N364   N     0.74363   0.38116   0.74278   0.00000  Uiso   1.00
N365   N     0.11710   0.47493   0.05704   0.00000  Uiso   1.00
N366   N     0.97774   0.07394   0.98548   0.00000  Uiso   1.00
N367   N     0.85973   0.34708   0.68743   0.00000  Uiso   1.00
N368   N     0.23321   0.44086   0.00169   0.00000  Uiso   1.00
