data_job_03398
_audit_creation_date              2018-12-19
_audit_creation_method            'Materials Studio'
_symmetry_space_group_name_H-M    'P1'
_symmetry_Int_Tables_number       1
_symmetry_cell_setting            triclinic
loop_
_symmetry_equiv_pos_as_xyz
  x,y,z
_cell_length_a                    11.5478
_cell_length_b                    12.6142
_cell_length_c                    23.2099
_cell_angle_alpha                 90.0000
_cell_angle_beta                  128.5134
_cell_angle_gamma                 90.0000
loop_
_atom_site_label
_atom_site_type_symbol
_atom_site_fract_x
_atom_site_fract_y
_atom_site_fract_z
_atom_site_U_iso_or_equiv
_atom_site_adp_type
_atom_site_occupancy
C1     C     0.54495   0.15393   0.60193   0.00000  Uiso   1.00
C2     C     0.58747   0.20817   0.55877   0.00000  Uiso   1.00
C3     C     0.55121   0.17300   0.49267   0.00000  Uiso   1.00
C4     C     0.60048   0.23381   0.46191   0.00000  Uiso   1.00
C5     C     0.65387   0.30396   0.38967   0.00000  Uiso   1.00
C6     C     0.46187   0.23682   0.61142   0.00000  Uiso   1.00
C7     C     0.32001   0.22575   0.58960   0.00000  Uiso   1.00
C8     C     0.26356   0.31068   0.60317   0.00000  Uiso   1.00
C9     C     0.12201   0.42529   0.61272   0.00000  Uiso   1.00
C10    C     0.68965   0.13367   0.67873   0.00000  Uiso   1.00
C11    C     0.73931   0.03587   0.71351   0.00000  Uiso   1.00
C12    C     0.87463   0.03396   0.78376   0.00000  Uiso   1.00
C13    C     0.08675   0.98841   0.89781   0.00000  Uiso   1.00
C14    C     0.69693   0.32445   0.66486   0.00000  Uiso   1.00
C15    C     0.67002   0.30079   0.59295   0.00000  Uiso   1.00
C16    C     0.71936   0.36166   0.56228   0.00000  Uiso   1.00
C17    C     0.68318   0.32659   0.49615   0.00000  Uiso   1.00
C18    C     0.54441   0.32944   0.64560   0.00000  Uiso   1.00
C19    C     0.48817   0.41440   0.65921   0.00000  Uiso   1.00
C20    C     0.34626   0.40346   0.63741   0.00000  Uiso   1.00
C21    C     0.77221   0.22629   0.71291   0.00000  Uiso   1.00
C22    C     0.90747   0.22453   0.78312   0.00000  Uiso   1.00
C23    C     0.95733   0.12674   0.81800   0.00000  Uiso   1.00
H24    H     0.48068   0.08183   0.57533   0.00000  Uiso   1.00
H25    H     0.48731   0.10133   0.46623   0.00000  Uiso   1.00
H26    H     0.25616   0.15406   0.56316   0.00000  Uiso   1.00
H27    H     0.67540   0.96421   0.68704   0.00000  Uiso   1.00
H28    H     0.53102   0.16381   0.36034   0.00000  Uiso   1.00
H29    H     0.04366   0.27498   0.56473   0.00000  Uiso   1.00
H30    H     0.92770   0.87465   0.82597   0.00000  Uiso   1.00
H31    H     0.76120   0.39656   0.69147   0.00000  Uiso   1.00
H32    H     0.78324   0.43333   0.58874   0.00000  Uiso   1.00
H33    H     0.55208   0.48606   0.68567   0.00000  Uiso   1.00
H34    H     0.97132   0.29622   0.80955   0.00000  Uiso   1.00
H35    H     0.77120   0.43328   0.45977   0.00000  Uiso   1.00
H36    H     0.28383   0.54445   0.66417   0.00000  Uiso   1.00
H37    H     0.16788   0.14412   0.92541   0.00000  Uiso   1.00
O38    O     0.66050   0.31707   0.34037   0.00000  Uiso   1.00
O39    O     0.02111   0.46292   0.60854   0.00000  Uiso   1.00
O40    O     0.18095   0.93769   0.95128   0.00000  Uiso   1.00
N41    N     0.58455   0.22217   0.39784   0.00000  Uiso   1.00
N42    N     0.12888   0.32612   0.58893   0.00000  Uiso   1.00
N43    N     0.95537   0.95185   0.83318   0.00000  Uiso   1.00
N44    N     0.71379   0.36717   0.45135   0.00000  Uiso   1.00
N45    N     0.25812   0.47112   0.64243   0.00000  Uiso   1.00
N46    N     0.08461   0.09685   0.88668   0.00000  Uiso   1.00
C47    C     0.45505   0.15393   0.89807   0.00000  Uiso   1.00
C48    C     0.41253   0.20817   0.94123   0.00000  Uiso   1.00
C49    C     0.44879   0.17300   0.00733   0.00000  Uiso   1.00
C50    C     0.39952   0.23381   0.03809   0.00000  Uiso   1.00
C51    C     0.34613   0.30396   0.11033   0.00000  Uiso   1.00
C52    C     0.53813   0.23682   0.88858   0.00000  Uiso   1.00
C53    C     0.67999   0.22575   0.91040   0.00000  Uiso   1.00
C54    C     0.73644   0.31068   0.89683   0.00000  Uiso   1.00
C55    C     0.87799   0.42529   0.88728   0.00000  Uiso   1.00
C56    C     0.31035   0.13367   0.82127   0.00000  Uiso   1.00
C57    C     0.26069   0.03587   0.78649   0.00000  Uiso   1.00
C58    C     0.12537   0.03396   0.71624   0.00000  Uiso   1.00
C59    C     0.91325   0.98841   0.60219   0.00000  Uiso   1.00
C60    C     0.30307   0.32445   0.83514   0.00000  Uiso   1.00
C61    C     0.32998   0.30079   0.90705   0.00000  Uiso   1.00
C62    C     0.28064   0.36166   0.93772   0.00000  Uiso   1.00
C63    C     0.31682   0.32659   0.00385   0.00000  Uiso   1.00
C64    C     0.45559   0.32944   0.85440   0.00000  Uiso   1.00
C65    C     0.51183   0.41440   0.84079   0.00000  Uiso   1.00
C66    C     0.65374   0.40346   0.86259   0.00000  Uiso   1.00
C67    C     0.22779   0.22629   0.78709   0.00000  Uiso   1.00
C68    C     0.09253   0.22453   0.71688   0.00000  Uiso   1.00
C69    C     0.04267   0.12674   0.68200   0.00000  Uiso   1.00
H70    H     0.51932   0.08183   0.92467   0.00000  Uiso   1.00
H71    H     0.51269   0.10133   0.03377   0.00000  Uiso   1.00
H72    H     0.74384   0.15406   0.93684   0.00000  Uiso   1.00
H73    H     0.32460   0.96421   0.81296   0.00000  Uiso   1.00
H74    H     0.46898   0.16381   0.13966   0.00000  Uiso   1.00
H75    H     0.95634   0.27498   0.93527   0.00000  Uiso   1.00
H76    H     0.07230   0.87465   0.67403   0.00000  Uiso   1.00
H77    H     0.23880   0.39656   0.80853   0.00000  Uiso   1.00
H78    H     0.21676   0.43333   0.91126   0.00000  Uiso   1.00
H79    H     0.44792   0.48606   0.81433   0.00000  Uiso   1.00
H80    H     0.02868   0.29622   0.69045   0.00000  Uiso   1.00
H81    H     0.22880   0.43328   0.04023   0.00000  Uiso   1.00
H82    H     0.71617   0.54445   0.83583   0.00000  Uiso   1.00
H83    H     0.83212   0.14412   0.57459   0.00000  Uiso   1.00
O84    O     0.33950   0.31707   0.15963   0.00000  Uiso   1.00
O85    O     0.97889   0.46292   0.89146   0.00000  Uiso   1.00
O86    O     0.81905   0.93769   0.54872   0.00000  Uiso   1.00
N87    N     0.41545   0.22217   0.10216   0.00000  Uiso   1.00
N88    N     0.87112   0.32612   0.91107   0.00000  Uiso   1.00
N89    N     0.04463   0.95185   0.66682   0.00000  Uiso   1.00
N90    N     0.28621   0.36717   0.04865   0.00000  Uiso   1.00
N91    N     0.74188   0.47112   0.85757   0.00000  Uiso   1.00
N92    N     0.91539   0.09685   0.61332   0.00000  Uiso   1.00
C93    C     0.45505   0.84607   0.39807   0.00000  Uiso   1.00
C94    C     0.41253   0.79183   0.44123   0.00000  Uiso   1.00
C95    C     0.44879   0.82700   0.50733   0.00000  Uiso   1.00
C96    C     0.39952   0.76619   0.53809   0.00000  Uiso   1.00
C97    C     0.34613   0.69604   0.61033   0.00000  Uiso   1.00
C98    C     0.53813   0.76318   0.38858   0.00000  Uiso   1.00
C99    C     0.67999   0.77425   0.41040   0.00000  Uiso   1.00
C100   C     0.73644   0.68932   0.39683   0.00000  Uiso   1.00
C101   C     0.87799   0.57471   0.38728   0.00000  Uiso   1.00
C102   C     0.31035   0.86633   0.32127   0.00000  Uiso   1.00
C103   C     0.26069   0.96413   0.28649   0.00000  Uiso   1.00
C104   C     0.12537   0.96604   0.21624   0.00000  Uiso   1.00
C105   C     0.91325   0.01159   0.10219   0.00000  Uiso   1.00
C106   C     0.30307   0.67555   0.33514   0.00000  Uiso   1.00
C107   C     0.32998   0.69921   0.40705   0.00000  Uiso   1.00
C108   C     0.28064   0.63834   0.43772   0.00000  Uiso   1.00
C109   C     0.31682   0.67341   0.50385   0.00000  Uiso   1.00
C110   C     0.45559   0.67056   0.35440   0.00000  Uiso   1.00
C111   C     0.51183   0.58560   0.34079   0.00000  Uiso   1.00
C112   C     0.65374   0.59654   0.36259   0.00000  Uiso   1.00
C113   C     0.22779   0.77371   0.28709   0.00000  Uiso   1.00
C114   C     0.09253   0.77547   0.21688   0.00000  Uiso   1.00
C115   C     0.04267   0.87326   0.18200   0.00000  Uiso   1.00
H116   H     0.51932   0.91817   0.42467   0.00000  Uiso   1.00
H117   H     0.51269   0.89867   0.53377   0.00000  Uiso   1.00
H118   H     0.74384   0.84594   0.43684   0.00000  Uiso   1.00
H119   H     0.32460   0.03579   0.31296   0.00000  Uiso   1.00
H120   H     0.46898   0.83619   0.63966   0.00000  Uiso   1.00
H121   H     0.95634   0.72502   0.43527   0.00000  Uiso   1.00
H122   H     0.07230   0.12535   0.17403   0.00000  Uiso   1.00
H123   H     0.23880   0.60344   0.30853   0.00000  Uiso   1.00
H124   H     0.21676   0.56667   0.41126   0.00000  Uiso   1.00
H125   H     0.44792   0.51394   0.31433   0.00000  Uiso   1.00
H126   H     0.02868   0.70378   0.19045   0.00000  Uiso   1.00
H127   H     0.22880   0.56672   0.54023   0.00000  Uiso   1.00
H128   H     0.71617   0.45555   0.33583   0.00000  Uiso   1.00
H129   H     0.83212   0.85588   0.07459   0.00000  Uiso   1.00
O130   O     0.33950   0.68293   0.65963   0.00000  Uiso   1.00
O131   O     0.97889   0.53708   0.39146   0.00000  Uiso   1.00
O132   O     0.81905   0.06231   0.04872   0.00000  Uiso   1.00
N133   N     0.41545   0.77783   0.60216   0.00000  Uiso   1.00
N134   N     0.87112   0.67388   0.41107   0.00000  Uiso   1.00
N135   N     0.04463   0.04815   0.16682   0.00000  Uiso   1.00
N136   N     0.28621   0.63283   0.54865   0.00000  Uiso   1.00
N137   N     0.74188   0.52888   0.35757   0.00000  Uiso   1.00
N138   N     0.91539   0.90315   0.11332   0.00000  Uiso   1.00
C139   C     0.54495   0.84607   0.10193   0.00000  Uiso   1.00
C140   C     0.58747   0.79183   0.05877   0.00000  Uiso   1.00
C141   C     0.55121   0.82700   0.99267   0.00000  Uiso   1.00
C142   C     0.60048   0.76619   0.96191   0.00000  Uiso   1.00
C143   C     0.65387   0.69604   0.88967   0.00000  Uiso   1.00
C144   C     0.46187   0.76318   0.11142   0.00000  Uiso   1.00
C145   C     0.32001   0.77425   0.08960   0.00000  Uiso   1.00
C146   C     0.26356   0.68932   0.10317   0.00000  Uiso   1.00
C147   C     0.12201   0.57471   0.11272   0.00000  Uiso   1.00
C148   C     0.68965   0.86633   0.17873   0.00000  Uiso   1.00
C149   C     0.73931   0.96413   0.21351   0.00000  Uiso   1.00
C150   C     0.87463   0.96604   0.28376   0.00000  Uiso   1.00
C151   C     0.08675   0.01159   0.39781   0.00000  Uiso   1.00
C152   C     0.69693   0.67555   0.16486   0.00000  Uiso   1.00
C153   C     0.67002   0.69921   0.09295   0.00000  Uiso   1.00
C154   C     0.71936   0.63834   0.06228   0.00000  Uiso   1.00
C155   C     0.68318   0.67341   0.99615   0.00000  Uiso   1.00
C156   C     0.54441   0.67056   0.14560   0.00000  Uiso   1.00
C157   C     0.48817   0.58560   0.15921   0.00000  Uiso   1.00
C158   C     0.34626   0.59654   0.13741   0.00000  Uiso   1.00
C159   C     0.77221   0.77371   0.21291   0.00000  Uiso   1.00
C160   C     0.90747   0.77547   0.28312   0.00000  Uiso   1.00
C161   C     0.95733   0.87326   0.31800   0.00000  Uiso   1.00
H162   H     0.48068   0.91817   0.07533   0.00000  Uiso   1.00
H163   H     0.48731   0.89867   0.96623   0.00000  Uiso   1.00
H164   H     0.25616   0.84594   0.06316   0.00000  Uiso   1.00
H165   H     0.67540   0.03579   0.18704   0.00000  Uiso   1.00
H166   H     0.53102   0.83619   0.86034   0.00000  Uiso   1.00
H167   H     0.04366   0.72502   0.06473   0.00000  Uiso   1.00
H168   H     0.92770   0.12535   0.32597   0.00000  Uiso   1.00
H169   H     0.76120   0.60344   0.19147   0.00000  Uiso   1.00
H170   H     0.78324   0.56667   0.08874   0.00000  Uiso   1.00
H171   H     0.55208   0.51394   0.18567   0.00000  Uiso   1.00
H172   H     0.97132   0.70378   0.30955   0.00000  Uiso   1.00
H173   H     0.77120   0.56672   0.95977   0.00000  Uiso   1.00
H174   H     0.28383   0.45555   0.16417   0.00000  Uiso   1.00
H175   H     0.16788   0.85588   0.42541   0.00000  Uiso   1.00
O176   O     0.66050   0.68293   0.84037   0.00000  Uiso   1.00
O177   O     0.02111   0.53708   0.10854   0.00000  Uiso   1.00
O178   O     0.18095   0.06231   0.45128   0.00000  Uiso   1.00
N179   N     0.58455   0.77783   0.89784   0.00000  Uiso   1.00
N180   N     0.12888   0.67388   0.08893   0.00000  Uiso   1.00
N181   N     0.95537   0.04815   0.33318   0.00000  Uiso   1.00
N182   N     0.71379   0.63283   0.95135   0.00000  Uiso   1.00
N183   N     0.25812   0.52888   0.14243   0.00000  Uiso   1.00
N184   N     0.08461   0.90315   0.38668   0.00000  Uiso   1.00
