data_job_05870
_audit_creation_date              2018-12-19
_audit_creation_method            'Materials Studio'
_symmetry_space_group_name_H-M    'P1'
_symmetry_Int_Tables_number       1
_symmetry_cell_setting            triclinic
loop_
_symmetry_equiv_pos_as_xyz
  x,y,z
_cell_length_a                    14.3121
_cell_length_b                    14.3121
_cell_length_c                    27.9290
_cell_angle_alpha                 90.0000
_cell_angle_beta                  90.0000
_cell_angle_gamma                 120.0000
loop_
_atom_site_label
_atom_site_type_symbol
_atom_site_fract_x
_atom_site_fract_y
_atom_site_fract_z
_atom_site_U_iso_or_equiv
_atom_site_adp_type
_atom_site_occupancy
C1     C     0.49977   0.56343   0.15403   0.00000  Uiso   1.00
C2     C     0.46125   0.64526   0.15180   0.00000  Uiso   1.00
C3     C     0.49075   0.72523   0.11744   0.00000  Uiso   1.00
C4     C     0.44673   0.79205   0.12165   0.00000  Uiso   1.00
C5     C     0.39775   0.92110   0.11253   0.00000  Uiso   1.00
C6     C     0.55039   0.57634   0.20339   0.00000  Uiso   1.00
C7     C     0.65484   0.59835   0.21240   0.00000  Uiso   1.00
C8     C     0.68585   0.60713   0.26005   0.00000  Uiso   1.00
C9     C     0.77524   0.62910   0.33103   0.00000  Uiso   1.00
C10    C     0.39817   0.45255   0.15391   0.00000  Uiso   1.00
C11    C     0.37463   0.37045   0.12133   0.00000  Uiso   1.00
C12    C     0.27749   0.27500   0.12733   0.00000  Uiso   1.00
C13    C     0.13053   0.10476   0.12148   0.00000  Uiso   1.00
C14    C     0.36915   0.53988   0.22261   0.00000  Uiso   1.00
C15    C     0.39030   0.63247   0.18905   0.00000  Uiso   1.00
C16    C     0.34622   0.69918   0.19331   0.00000  Uiso   1.00
C17    C     0.37565   0.77923   0.15897   0.00000  Uiso   1.00
C18    C     0.47945   0.56356   0.24064   0.00000  Uiso   1.00
C19    C     0.51031   0.57230   0.28828   0.00000  Uiso   1.00
C20    C     0.61478   0.59432   0.29737   0.00000  Uiso   1.00
C21    C     0.32722   0.43976   0.19116   0.00000  Uiso   1.00
C22    C     0.23011   0.34441   0.19721   0.00000  Uiso   1.00
C23    C     0.20642   0.26218   0.16465   0.00000  Uiso   1.00
H24    H     0.55502   0.57338   0.12503   0.00000  Uiso   1.00
H25    H     0.54566   0.73511   0.08862   0.00000  Uiso   1.00
H26    H     0.70972   0.60823   0.18357   0.00000  Uiso   1.00
H27    H     0.42955   0.38038   0.09251   0.00000  Uiso   1.00
H28    H     0.50404   0.90879   0.06468   0.00000  Uiso   1.00
H29    H     0.84995   0.64123   0.26490   0.00000  Uiso   1.00
H30    H     0.25916   0.16075   0.07288   0.00000  Uiso   1.00
H31    H     0.31391   0.52992   0.25162   0.00000  Uiso   1.00
H32    H     0.29132   0.68927   0.22215   0.00000  Uiso   1.00
H33    H     0.45538   0.56239   0.31710   0.00000  Uiso   1.00
H34    H     0.17522   0.33454   0.22604   0.00000  Uiso   1.00
H35    H     0.29761   0.87159   0.17306   0.00000  Uiso   1.00
H36    H     0.64352   0.60403   0.37328   0.00000  Uiso   1.00
H37    H     0.05274   0.12355   0.18126   0.00000  Uiso   1.00
O38    O     0.39034   0.99582   0.09721   0.00000  Uiso   1.00
O39    O     0.84416   0.64477   0.35988   0.00000  Uiso   1.00
O40    O     0.06906   0.01440   0.10796   0.00000  Uiso   1.00
N41    N     0.45853   0.87816   0.09423   0.00000  Uiso   1.00
N42    N     0.78195   0.62802   0.28142   0.00000  Uiso   1.00
N43    N     0.22963   0.17880   0.10191   0.00000  Uiso   1.00
N44    N     0.34746   0.85814   0.15254   0.00000  Uiso   1.00
N45    N     0.67087   0.60800   0.33973   0.00000  Uiso   1.00
N46    N     0.11855   0.15878   0.16022   0.00000  Uiso   1.00
C47    C     0.43657   0.93635   0.82070   0.00000  Uiso   1.00
C48    C     0.35474   0.81599   0.81846   0.00000  Uiso   1.00
C49    C     0.27477   0.76552   0.78410   0.00000  Uiso   1.00
C50    C     0.20795   0.65468   0.78832   0.00000  Uiso   1.00
C51    C     0.07890   0.47665   0.77919   0.00000  Uiso   1.00
C52    C     0.42366   0.97405   0.87006   0.00000  Uiso   1.00
C53    C     0.40165   0.05649   0.87907   0.00000  Uiso   1.00
C54    C     0.39287   0.07872   0.92672   0.00000  Uiso   1.00
C55    C     0.37090   0.14614   0.99769   0.00000  Uiso   1.00
C56    C     0.54745   0.94562   0.82058   0.00000  Uiso   1.00
C57    C     0.62955   0.00418   0.78800   0.00000  Uiso   1.00
C58    C     0.72500   0.00250   0.79400   0.00000  Uiso   1.00
C59    C     0.89524   0.02577   0.78815   0.00000  Uiso   1.00
C60    C     0.46012   0.82927   0.88928   0.00000  Uiso   1.00
C61    C     0.36753   0.75783   0.85572   0.00000  Uiso   1.00
C62    C     0.30082   0.64704   0.85998   0.00000  Uiso   1.00
C63    C     0.22077   0.59641   0.82563   0.00000  Uiso   1.00
C64    C     0.43644   0.91589   0.90731   0.00000  Uiso   1.00
C65    C     0.42770   0.93801   0.95495   0.00000  Uiso   1.00
C66    C     0.40568   0.02045   0.96404   0.00000  Uiso   1.00
C67    C     0.56024   0.88746   0.85783   0.00000  Uiso   1.00
C68    C     0.65559   0.88570   0.86388   0.00000  Uiso   1.00
C69    C     0.73782   0.94423   0.83131   0.00000  Uiso   1.00
H70    H     0.42662   0.98163   0.79170   0.00000  Uiso   1.00
H71    H     0.26489   0.81056   0.75528   0.00000  Uiso   1.00
H72    H     0.39177   0.10149   0.85024   0.00000  Uiso   1.00
H73    H     0.61962   0.04918   0.75918   0.00000  Uiso   1.00
H74    H     0.09121   0.59524   0.73135   0.00000  Uiso   1.00
H75    H     0.35877   0.20871   0.93156   0.00000  Uiso   1.00
H76    H     0.83925   0.09841   0.73955   0.00000  Uiso   1.00
H77    H     0.47008   0.78399   0.91829   0.00000  Uiso   1.00
H78    H     0.31073   0.60206   0.88881   0.00000  Uiso   1.00
H79    H     0.43761   0.89299   0.98377   0.00000  Uiso   1.00
H80    H     0.66546   0.84068   0.89271   0.00000  Uiso   1.00
H81    H     0.12841   0.42602   0.83973   0.00000  Uiso   1.00
H82    H     0.39597   0.03949   0.03994   0.00000  Uiso   1.00
H83    H     0.87645   0.92919   0.84793   0.00000  Uiso   1.00
O84    O     0.00418   0.39452   0.76387   0.00000  Uiso   1.00
O85    O     0.35523   0.19939   0.02655   0.00000  Uiso   1.00
O86    O     0.98560   0.05467   0.77463   0.00000  Uiso   1.00
N87    N     0.12184   0.58038   0.76089   0.00000  Uiso   1.00
N88    N     0.37198   0.15393   0.94808   0.00000  Uiso   1.00
N89    N     0.82120   0.05083   0.76857   0.00000  Uiso   1.00
N90    N     0.14186   0.48932   0.81921   0.00000  Uiso   1.00
N91    N     0.39200   0.06287   0.00640   0.00000  Uiso   1.00
N92    N     0.84122   0.95977   0.82689   0.00000  Uiso   1.00
C93    C     0.06365   0.50023   0.48736   0.00000  Uiso   1.00
C94    C     0.18401   0.53875   0.48513   0.00000  Uiso   1.00
C95    C     0.23448   0.50925   0.45077   0.00000  Uiso   1.00
C96    C     0.34532   0.55327   0.45498   0.00000  Uiso   1.00
C97    C     0.52335   0.60225   0.44586   0.00000  Uiso   1.00
C98    C     0.02595   0.44961   0.53672   0.00000  Uiso   1.00
C99    C     0.94351   0.34516   0.54574   0.00000  Uiso   1.00
C100   C     0.92128   0.31415   0.59338   0.00000  Uiso   1.00
C101   C     0.85386   0.22476   0.66436   0.00000  Uiso   1.00
C102   C     0.05438   0.60183   0.48724   0.00000  Uiso   1.00
C103   C     0.99582   0.62537   0.45467   0.00000  Uiso   1.00
C104   C     0.99750   0.72251   0.46066   0.00000  Uiso   1.00
C105   C     0.97423   0.86947   0.45482   0.00000  Uiso   1.00
C106   C     0.17073   0.63085   0.55595   0.00000  Uiso   1.00
C107   C     0.24217   0.60970   0.52238   0.00000  Uiso   1.00
C108   C     0.35296   0.65378   0.52665   0.00000  Uiso   1.00
C109   C     0.40359   0.62435   0.49230   0.00000  Uiso   1.00
C110   C     0.08411   0.52055   0.57397   0.00000  Uiso   1.00
C111   C     0.06199   0.48969   0.62162   0.00000  Uiso   1.00
C112   C     0.97955   0.38522   0.63070   0.00000  Uiso   1.00
C113   C     0.11254   0.67278   0.52450   0.00000  Uiso   1.00
C114   C     0.11430   0.76989   0.53054   0.00000  Uiso   1.00
C115   C     0.05577   0.79358   0.49798   0.00000  Uiso   1.00
H116   H     0.01837   0.44498   0.45837   0.00000  Uiso   1.00
H117   H     0.18944   0.45434   0.42195   0.00000  Uiso   1.00
H118   H     0.89851   0.29028   0.51690   0.00000  Uiso   1.00
H119   H     0.95082   0.57045   0.42584   0.00000  Uiso   1.00
H120   H     0.40476   0.49596   0.39801   0.00000  Uiso   1.00
H121   H     0.79129   0.15005   0.59823   0.00000  Uiso   1.00
H122   H     0.90159   0.74084   0.40621   0.00000  Uiso   1.00
H123   H     0.21601   0.68609   0.58495   0.00000  Uiso   1.00
H124   H     0.39794   0.70868   0.55548   0.00000  Uiso   1.00
H125   H     0.10701   0.54462   0.65043   0.00000  Uiso   1.00
H126   H     0.15932   0.82478   0.55938   0.00000  Uiso   1.00
H127   H     0.57398   0.70239   0.50639   0.00000  Uiso   1.00
H128   H     0.96051   0.35648   0.70661   0.00000  Uiso   1.00
H129   H     0.07081   0.94726   0.51459   0.00000  Uiso   1.00
O130   O     0.60548   0.60966   0.43054   0.00000  Uiso   1.00
O131   O     0.80061   0.15584   0.69322   0.00000  Uiso   1.00
O132   O     0.94533   0.93094   0.44130   0.00000  Uiso   1.00
N133   N     0.41962   0.54147   0.42756   0.00000  Uiso   1.00
N134   N     0.84607   0.21805   0.61475   0.00000  Uiso   1.00
N135   N     0.94917   0.77037   0.43524   0.00000  Uiso   1.00
N136   N     0.51068   0.65254   0.48588   0.00000  Uiso   1.00
N137   N     0.93713   0.32913   0.67307   0.00000  Uiso   1.00
N138   N     0.04023   0.88145   0.49356   0.00000  Uiso   1.00
C139   C     0.56343   0.49977   0.84597   0.00000  Uiso   1.00
C140   C     0.64526   0.46125   0.84820   0.00000  Uiso   1.00
C141   C     0.72523   0.49075   0.88256   0.00000  Uiso   1.00
C142   C     0.79205   0.44673   0.87835   0.00000  Uiso   1.00
C143   C     0.92110   0.39775   0.88747   0.00000  Uiso   1.00
C144   C     0.57634   0.55039   0.79661   0.00000  Uiso   1.00
C145   C     0.59835   0.65484   0.78760   0.00000  Uiso   1.00
C146   C     0.60713   0.68585   0.73995   0.00000  Uiso   1.00
C147   C     0.62910   0.77524   0.66897   0.00000  Uiso   1.00
C148   C     0.45255   0.39817   0.84609   0.00000  Uiso   1.00
C149   C     0.37045   0.37463   0.87867   0.00000  Uiso   1.00
C150   C     0.27500   0.27749   0.87267   0.00000  Uiso   1.00
C151   C     0.10476   0.13053   0.87852   0.00000  Uiso   1.00
C152   C     0.53988   0.36915   0.77739   0.00000  Uiso   1.00
C153   C     0.63247   0.39030   0.81095   0.00000  Uiso   1.00
C154   C     0.69918   0.34622   0.80669   0.00000  Uiso   1.00
C155   C     0.77923   0.37565   0.84103   0.00000  Uiso   1.00
C156   C     0.56356   0.47945   0.75936   0.00000  Uiso   1.00
C157   C     0.57230   0.51031   0.71172   0.00000  Uiso   1.00
C158   C     0.59432   0.61478   0.70263   0.00000  Uiso   1.00
C159   C     0.43976   0.32722   0.80884   0.00000  Uiso   1.00
C160   C     0.34441   0.23011   0.80279   0.00000  Uiso   1.00
C161   C     0.26218   0.20642   0.83535   0.00000  Uiso   1.00
H162   H     0.57338   0.55502   0.87497   0.00000  Uiso   1.00
H163   H     0.73511   0.54566   0.91138   0.00000  Uiso   1.00
H164   H     0.60823   0.70972   0.81643   0.00000  Uiso   1.00
H165   H     0.38038   0.42955   0.90749   0.00000  Uiso   1.00
H166   H     0.90879   0.50404   0.93532   0.00000  Uiso   1.00
H167   H     0.64123   0.84995   0.73510   0.00000  Uiso   1.00
H168   H     0.16075   0.25916   0.92712   0.00000  Uiso   1.00
H169   H     0.52992   0.31391   0.74838   0.00000  Uiso   1.00
H170   H     0.68927   0.29132   0.77785   0.00000  Uiso   1.00
H171   H     0.56239   0.45538   0.68290   0.00000  Uiso   1.00
H172   H     0.33454   0.17522   0.77396   0.00000  Uiso   1.00
H173   H     0.87159   0.29761   0.82694   0.00000  Uiso   1.00
H174   H     0.60403   0.64352   0.62672   0.00000  Uiso   1.00
H175   H     0.12355   0.05274   0.81874   0.00000  Uiso   1.00
O176   O     0.99582   0.39034   0.90279   0.00000  Uiso   1.00
O177   O     0.64477   0.84416   0.64012   0.00000  Uiso   1.00
O178   O     0.01440   0.06906   0.89204   0.00000  Uiso   1.00
N179   N     0.87816   0.45853   0.90577   0.00000  Uiso   1.00
N180   N     0.62802   0.78195   0.71858   0.00000  Uiso   1.00
N181   N     0.17880   0.22963   0.89809   0.00000  Uiso   1.00
N182   N     0.85814   0.34746   0.84746   0.00000  Uiso   1.00
N183   N     0.60800   0.67087   0.66027   0.00000  Uiso   1.00
N184   N     0.15878   0.11855   0.83978   0.00000  Uiso   1.00
C185   C     0.93635   0.43657   0.17930   0.00000  Uiso   1.00
C186   C     0.81599   0.35474   0.18154   0.00000  Uiso   1.00
C187   C     0.76552   0.27477   0.21590   0.00000  Uiso   1.00
C188   C     0.65468   0.20795   0.21168   0.00000  Uiso   1.00
C189   C     0.47665   0.07890   0.22081   0.00000  Uiso   1.00
C190   C     0.97405   0.42366   0.12994   0.00000  Uiso   1.00
C191   C     0.05649   0.40165   0.12093   0.00000  Uiso   1.00
C192   C     0.07872   0.39287   0.07328   0.00000  Uiso   1.00
C193   C     0.14614   0.37090   0.00231   0.00000  Uiso   1.00
C194   C     0.94562   0.54745   0.17942   0.00000  Uiso   1.00
C195   C     0.00418   0.62955   0.21200   0.00000  Uiso   1.00
C196   C     0.00250   0.72500   0.20600   0.00000  Uiso   1.00
C197   C     0.02577   0.89524   0.21185   0.00000  Uiso   1.00
C198   C     0.82927   0.46012   0.11072   0.00000  Uiso   1.00
C199   C     0.75783   0.36753   0.14428   0.00000  Uiso   1.00
C200   C     0.64704   0.30082   0.14002   0.00000  Uiso   1.00
C201   C     0.59641   0.22077   0.17437   0.00000  Uiso   1.00
C202   C     0.91589   0.43644   0.09269   0.00000  Uiso   1.00
C203   C     0.93801   0.42770   0.04505   0.00000  Uiso   1.00
C204   C     0.02045   0.40568   0.03596   0.00000  Uiso   1.00
C205   C     0.88746   0.56024   0.14217   0.00000  Uiso   1.00
C206   C     0.88570   0.65559   0.13612   0.00000  Uiso   1.00
C207   C     0.94423   0.73782   0.16869   0.00000  Uiso   1.00
H208   H     0.98163   0.42662   0.20830   0.00000  Uiso   1.00
H209   H     0.81056   0.26489   0.24472   0.00000  Uiso   1.00
H210   H     0.10149   0.39177   0.14976   0.00000  Uiso   1.00
H211   H     0.04918   0.61962   0.24082   0.00000  Uiso   1.00
H212   H     0.59524   0.09121   0.26865   0.00000  Uiso   1.00
H213   H     0.20871   0.35877   0.06844   0.00000  Uiso   1.00
H214   H     0.09841   0.83925   0.26045   0.00000  Uiso   1.00
H215   H     0.78399   0.47008   0.08171   0.00000  Uiso   1.00
H216   H     0.60206   0.31073   0.11119   0.00000  Uiso   1.00
H217   H     0.89299   0.43761   0.01623   0.00000  Uiso   1.00
H218   H     0.84068   0.66546   0.10729   0.00000  Uiso   1.00
H219   H     0.42602   0.12841   0.16027   0.00000  Uiso   1.00
H220   H     0.03949   0.39597   0.96006   0.00000  Uiso   1.00
H221   H     0.92919   0.87645   0.15207   0.00000  Uiso   1.00
O222   O     0.39452   0.00418   0.23613   0.00000  Uiso   1.00
O223   O     0.19939   0.35523   0.97345   0.00000  Uiso   1.00
O224   O     0.05467   0.98560   0.22537   0.00000  Uiso   1.00
N225   N     0.58038   0.12184   0.23911   0.00000  Uiso   1.00
N226   N     0.15393   0.37198   0.05192   0.00000  Uiso   1.00
N227   N     0.05083   0.82120   0.23143   0.00000  Uiso   1.00
N228   N     0.48932   0.14186   0.18079   0.00000  Uiso   1.00
N229   N     0.06287   0.39200   0.99360   0.00000  Uiso   1.00
N230   N     0.95977   0.84122   0.17311   0.00000  Uiso   1.00
C231   C     0.50023   0.06365   0.51264   0.00000  Uiso   1.00
C232   C     0.53875   0.18401   0.51487   0.00000  Uiso   1.00
C233   C     0.50925   0.23448   0.54923   0.00000  Uiso   1.00
C234   C     0.55327   0.34532   0.54502   0.00000  Uiso   1.00
C235   C     0.60225   0.52335   0.55414   0.00000  Uiso   1.00
C236   C     0.44961   0.02595   0.46328   0.00000  Uiso   1.00
C237   C     0.34516   0.94351   0.45426   0.00000  Uiso   1.00
C238   C     0.31415   0.92128   0.40662   0.00000  Uiso   1.00
C239   C     0.22476   0.85386   0.33564   0.00000  Uiso   1.00
C240   C     0.60183   0.05438   0.51276   0.00000  Uiso   1.00
C241   C     0.62537   0.99582   0.54533   0.00000  Uiso   1.00
C242   C     0.72251   0.99750   0.53934   0.00000  Uiso   1.00
C243   C     0.86947   0.97423   0.54518   0.00000  Uiso   1.00
C244   C     0.63085   0.17073   0.44405   0.00000  Uiso   1.00
C245   C     0.60970   0.24217   0.47762   0.00000  Uiso   1.00
C246   C     0.65378   0.35296   0.47335   0.00000  Uiso   1.00
C247   C     0.62435   0.40359   0.50770   0.00000  Uiso   1.00
C248   C     0.52055   0.08411   0.42603   0.00000  Uiso   1.00
C249   C     0.48969   0.06199   0.37838   0.00000  Uiso   1.00
C250   C     0.38522   0.97955   0.36930   0.00000  Uiso   1.00
C251   C     0.67278   0.11254   0.47550   0.00000  Uiso   1.00
C252   C     0.76989   0.11430   0.46946   0.00000  Uiso   1.00
C253   C     0.79358   0.05577   0.50202   0.00000  Uiso   1.00
H254   H     0.44498   0.01837   0.54163   0.00000  Uiso   1.00
H255   H     0.45434   0.18944   0.57805   0.00000  Uiso   1.00
H256   H     0.29028   0.89851   0.48310   0.00000  Uiso   1.00
H257   H     0.57045   0.95082   0.57416   0.00000  Uiso   1.00
H258   H     0.49596   0.40476   0.60199   0.00000  Uiso   1.00
H259   H     0.15005   0.79129   0.40177   0.00000  Uiso   1.00
H260   H     0.74084   0.90159   0.59379   0.00000  Uiso   1.00
H261   H     0.68609   0.21601   0.41505   0.00000  Uiso   1.00
H262   H     0.70868   0.39794   0.44452   0.00000  Uiso   1.00
H263   H     0.54462   0.10701   0.34957   0.00000  Uiso   1.00
H264   H     0.82478   0.15932   0.44062   0.00000  Uiso   1.00
H265   H     0.70239   0.57398   0.49361   0.00000  Uiso   1.00
H266   H     0.35648   0.96051   0.29339   0.00000  Uiso   1.00
H267   H     0.94726   0.07081   0.48541   0.00000  Uiso   1.00
O268   O     0.60966   0.60548   0.56946   0.00000  Uiso   1.00
O269   O     0.15584   0.80061   0.30678   0.00000  Uiso   1.00
O270   O     0.93094   0.94533   0.55870   0.00000  Uiso   1.00
N271   N     0.54147   0.41962   0.57244   0.00000  Uiso   1.00
N272   N     0.21805   0.84607   0.38525   0.00000  Uiso   1.00
N273   N     0.77037   0.94917   0.56476   0.00000  Uiso   1.00
N274   N     0.65254   0.51068   0.51412   0.00000  Uiso   1.00
N275   N     0.32913   0.93713   0.32693   0.00000  Uiso   1.00
N276   N     0.88145   0.04023   0.50644   0.00000  Uiso   1.00
