data_job_06300
_audit_creation_date              2018-12-19
_audit_creation_method            'Materials Studio'
_symmetry_space_group_name_H-M    'P1'
_symmetry_Int_Tables_number       1
_symmetry_cell_setting            triclinic
loop_
_symmetry_equiv_pos_as_xyz
  x,y,z
_cell_length_a                    16.8906
_cell_length_b                    16.8774
_cell_length_c                    16.8628
_cell_angle_alpha                 94.1008
_cell_angle_beta                  94.0797
_cell_angle_gamma                 94.0550
loop_
_atom_site_label
_atom_site_type_symbol
_atom_site_fract_x
_atom_site_fract_y
_atom_site_fract_z
_atom_site_U_iso_or_equiv
_atom_site_adp_type
_atom_site_occupancy
C1     C     0.01860   0.41332   0.42212   0.00000  Uiso   1.00
C2     C     0.01612   0.43355   0.33532   0.00000  Uiso   1.00
C3     C     0.01782   0.50967   0.30905   0.00000  Uiso   1.00
C4     C     0.01501   0.51562   0.22722   0.00000  Uiso   1.00
C5     C     0.01178   0.55734   0.10059   0.00000  Uiso   1.00
C6     C     0.94468   0.35766   0.42903   0.00000  Uiso   1.00
C7     C     0.88632   0.36998   0.48155   0.00000  Uiso   1.00
C8     C     0.82337   0.31204   0.47861   0.00000  Uiso   1.00
C9     C     0.70925   0.23592   0.49749   0.00000  Uiso   1.00
C10    C     0.08950   0.36321   0.43444   0.00000  Uiso   1.00
C11    C     0.15290   0.38018   0.49153   0.00000  Uiso   1.00
C12    C     0.21187   0.32690   0.49315   0.00000  Uiso   1.00
C13    C     0.32261   0.25940   0.52044   0.00000  Uiso   1.00
C14    C     0.01057   0.28850   0.32351   0.00000  Uiso   1.00
C15    C     0.01176   0.36575   0.28176   0.00000  Uiso   1.00
C16    C     0.00894   0.37158   0.19995   0.00000  Uiso   1.00
C17    C     0.01064   0.44770   0.17356   0.00000  Uiso   1.00
C18    C     0.94031   0.28987   0.37547   0.00000  Uiso   1.00
C19    C     0.87744   0.23189   0.37245   0.00000  Uiso   1.00
C20    C     0.81900   0.24412   0.42495   0.00000  Uiso   1.00
C21    C     0.08514   0.29541   0.38088   0.00000  Uiso   1.00
C22    C     0.14402   0.24209   0.38242   0.00000  Uiso   1.00
C23    C     0.20750   0.25898   0.43949   0.00000  Uiso   1.00
H24    H     0.02199   0.46609   0.46382   0.00000  Uiso   1.00
H25    H     0.02119   0.56212   0.35052   0.00000  Uiso   1.00
H26    H     0.88971   0.42245   0.52300   0.00000  Uiso   1.00
H27    H     0.15625   0.43265   0.53296   0.00000  Uiso   1.00
H28    H     0.01835   0.63869   0.20128   0.00000  Uiso   1.00
H29    H     0.74114   0.34417   0.56498   0.00000  Uiso   1.00
H30    H     0.30319   0.36568   0.58600   0.00000  Uiso   1.00
H31    H     0.00718   0.23572   0.28181   0.00000  Uiso   1.00
H32    H     0.00557   0.31911   0.15852   0.00000  Uiso   1.00
H33    H     0.87409   0.17943   0.33099   0.00000  Uiso   1.00
H34    H     0.14063   0.18963   0.34096   0.00000  Uiso   1.00
H35    H     0.00567   0.44145   0.04544   0.00000  Uiso   1.00
H36    H     0.72846   0.14692   0.40914   0.00000  Uiso   1.00
H37    H     0.29050   0.16843   0.43016   0.00000  Uiso   1.00
O38    O     0.01119   0.59908   0.04554   0.00000  Uiso   1.00
O39    O     0.64751   0.21267   0.52271   0.00000  Uiso   1.00
O40    O     0.38490   0.24090   0.55028   0.00000  Uiso   1.00
N41    N     0.01560   0.58083   0.18153   0.00000  Uiso   1.00
N42    N     0.75642   0.30547   0.52155   0.00000  Uiso   1.00
N43    N     0.28188   0.32557   0.54122   0.00000  Uiso   1.00
N44    N     0.00878   0.47469   0.09767   0.00000  Uiso   1.00
N45    N     0.74960   0.19934   0.43770   0.00000  Uiso   1.00
N46    N     0.27505   0.21944   0.45736   0.00000  Uiso   1.00
C47    C     0.42178   0.01853   0.41334   0.00000  Uiso   1.00
C48    C     0.33513   0.01608   0.43361   0.00000  Uiso   1.00
C49    C     0.30889   0.01782   0.50981   0.00000  Uiso   1.00
C50    C     0.22720   0.01503   0.51578   0.00000  Uiso   1.00
C51    C     0.10077   0.01184   0.55756   0.00000  Uiso   1.00
C52    C     0.42870   0.94453   0.35761   0.00000  Uiso   1.00
C53    C     0.48114   0.88612   0.36991   0.00000  Uiso   1.00
C54    C     0.47822   0.82309   0.31189   0.00000  Uiso   1.00
C55    C     0.49711   0.70885   0.23566   0.00000  Uiso   1.00
C56    C     0.43407   0.08946   0.36322   0.00000  Uiso   1.00
C57    C     0.49105   0.15291   0.38022   0.00000  Uiso   1.00
C58    C     0.49267   0.21191   0.32691   0.00000  Uiso   1.00
C59    C     0.51990   0.32270   0.25938   0.00000  Uiso   1.00
C60    C     0.32336   0.01048   0.28844   0.00000  Uiso   1.00
C61    C     0.28167   0.01170   0.36576   0.00000  Uiso   1.00
C62    C     0.19999   0.00891   0.37161   0.00000  Uiso   1.00
C63    C     0.17364   0.01065   0.44781   0.00000  Uiso   1.00
C64    C     0.37524   0.94015   0.28976   0.00000  Uiso   1.00
C65    C     0.37224   0.87720   0.23171   0.00000  Uiso   1.00
C66    C     0.42466   0.81871   0.24392   0.00000  Uiso   1.00
C67    C     0.38061   0.08509   0.29537   0.00000  Uiso   1.00
C68    C     0.38215   0.14400   0.24202   0.00000  Uiso   1.00
C69    C     0.43911   0.20752   0.25894   0.00000  Uiso   1.00
H70    H     0.46341   0.02194   0.46616   0.00000  Uiso   1.00
H71    H     0.35028   0.02120   0.56230   0.00000  Uiso   1.00
H72    H     0.52251   0.88952   0.42241   0.00000  Uiso   1.00
H73    H     0.53241   0.15627   0.43272   0.00000  Uiso   1.00
H74    H     0.20128   0.01843   0.63896   0.00000  Uiso   1.00
H75    H     0.56446   0.74079   0.34399   0.00000  Uiso   1.00
H76    H     0.58534   0.30329   0.36574   0.00000  Uiso   1.00
H77    H     0.28173   0.00707   0.23561   0.00000  Uiso   1.00
H78    H     0.15863   0.00552   0.31910   0.00000  Uiso   1.00
H79    H     0.33087   0.87384   0.17922   0.00000  Uiso   1.00
H80    H     0.34077   0.14059   0.18953   0.00000  Uiso   1.00
H81    H     0.04573   0.00570   0.44158   0.00000  Uiso   1.00
H82    H     0.40891   0.72806   0.14661   0.00000  Uiso   1.00
H83    H     0.42979   0.29056   0.16835   0.00000  Uiso   1.00
O84    O     0.04581   0.01128   0.59935   0.00000  Uiso   1.00
O85    O     0.52229   0.64704   0.21236   0.00000  Uiso   1.00
O86    O     0.54968   0.38503   0.24089   0.00000  Uiso   1.00
N87    N     0.18157   0.01566   0.58105   0.00000  Uiso   1.00
N88    N     0.52111   0.75608   0.30528   0.00000  Uiso   1.00
N89    N     0.54065   0.28196   0.32560   0.00000  Uiso   1.00
N90    N     0.09787   0.00881   0.47484   0.00000  Uiso   1.00
N91    N     0.43741   0.74923   0.19907   0.00000  Uiso   1.00
N92    N     0.45695   0.27511   0.21938   0.00000  Uiso   1.00
C93    C     0.41335   0.42194   0.01839   0.00000  Uiso   1.00
C94    C     0.43359   0.33521   0.01589   0.00000  Uiso   1.00
C95    C     0.50967   0.30893   0.01761   0.00000  Uiso   1.00
C96    C     0.51565   0.22717   0.01478   0.00000  Uiso   1.00
C97    C     0.55738   0.10063   0.01153   0.00000  Uiso   1.00
C98    C     0.35772   0.42884   0.94433   0.00000  Uiso   1.00
C99    C     0.36999   0.48130   0.88588   0.00000  Uiso   1.00
C100   C     0.31208   0.47837   0.82282   0.00000  Uiso   1.00
C101   C     0.23599   0.49725   0.70850   0.00000  Uiso   1.00
C102   C     0.36329   0.43428   0.08939   0.00000  Uiso   1.00
C103   C     0.38025   0.49132   0.15291   0.00000  Uiso   1.00
C104   C     0.32702   0.49298   0.21198   0.00000  Uiso   1.00
C105   C     0.25959   0.52029   0.32289   0.00000  Uiso   1.00
C106   C     0.28867   0.32346   0.01031   0.00000  Uiso   1.00
C107   C     0.36587   0.28172   0.01150   0.00000  Uiso   1.00
C108   C     0.37173   0.19998   0.00868   0.00000  Uiso   1.00
C109   C     0.44780   0.17358   0.01039   0.00000  Uiso   1.00
C110   C     0.29000   0.37536   0.93994   0.00000  Uiso   1.00
C111   C     0.23205   0.37235   0.87695   0.00000  Uiso   1.00
C112   C     0.24424   0.42478   0.81842   0.00000  Uiso   1.00
C113   C     0.29557   0.38079   0.08501   0.00000  Uiso   1.00
C114   C     0.24231   0.38236   0.14398   0.00000  Uiso   1.00
C115   C     0.25918   0.43939   0.20758   0.00000  Uiso   1.00
H116   H     0.46607   0.46358   0.02180   0.00000  Uiso   1.00
H117   H     0.56207   0.35034   0.02099   0.00000  Uiso   1.00
H118   H     0.42240   0.52269   0.88930   0.00000  Uiso   1.00
H119   H     0.43266   0.53271   0.15629   0.00000  Uiso   1.00
H120   H     0.63863   0.20121   0.01814   0.00000  Uiso   1.00
H121   H     0.34413   0.56464   0.74047   0.00000  Uiso   1.00
H122   H     0.36575   0.58575   0.30346   0.00000  Uiso   1.00
H123   H     0.23594   0.28182   0.00690   0.00000  Uiso   1.00
H124   H     0.31931   0.15860   0.00528   0.00000  Uiso   1.00
H125   H     0.17965   0.33095   0.87358   0.00000  Uiso   1.00
H126   H     0.18991   0.34096   0.14057   0.00000  Uiso   1.00
H127   H     0.44160   0.04558   0.00538   0.00000  Uiso   1.00
H128   H     0.14710   0.40901   0.72771   0.00000  Uiso   1.00
H129   H     0.16873   0.43012   0.29071   0.00000  Uiso   1.00
O130   O     0.59911   0.04561   0.01094   0.00000  Uiso   1.00
O131   O     0.21273   0.52243   0.64665   0.00000  Uiso   1.00
O132   O     0.24111   0.55013   0.38529   0.00000  Uiso   1.00
N133   N     0.58082   0.18149   0.01538   0.00000  Uiso   1.00
N134   N     0.30549   0.52127   0.75576   0.00000  Uiso   1.00
N135   N     0.32569   0.54102   0.28211   0.00000  Uiso   1.00
N136   N     0.47480   0.09775   0.00852   0.00000  Uiso   1.00
N137   N     0.19947   0.43752   0.74890   0.00000  Uiso   1.00
N138   N     0.21967   0.45728   0.27524   0.00000  Uiso   1.00
C139   C     0.98140   0.58668   0.57788   0.00000  Uiso   1.00
C140   C     0.98388   0.56645   0.66468   0.00000  Uiso   1.00
C141   C     0.98218   0.49033   0.69095   0.00000  Uiso   1.00
C142   C     0.98499   0.48438   0.77278   0.00000  Uiso   1.00
C143   C     0.98822   0.44266   0.89941   0.00000  Uiso   1.00
C144   C     0.05532   0.64234   0.57097   0.00000  Uiso   1.00
C145   C     0.11368   0.63002   0.51845   0.00000  Uiso   1.00
C146   C     0.17663   0.68796   0.52139   0.00000  Uiso   1.00
C147   C     0.29075   0.76408   0.50251   0.00000  Uiso   1.00
C148   C     0.91051   0.63679   0.56556   0.00000  Uiso   1.00
C149   C     0.84710   0.61982   0.50847   0.00000  Uiso   1.00
C150   C     0.78813   0.67310   0.50685   0.00000  Uiso   1.00
C151   C     0.67739   0.74060   0.47956   0.00000  Uiso   1.00
C152   C     0.98943   0.71150   0.67649   0.00000  Uiso   1.00
C153   C     0.98824   0.63425   0.71824   0.00000  Uiso   1.00
C154   C     0.99106   0.62842   0.80005   0.00000  Uiso   1.00
C155   C     0.98936   0.55230   0.82644   0.00000  Uiso   1.00
C156   C     0.05969   0.71013   0.62453   0.00000  Uiso   1.00
C157   C     0.12256   0.76811   0.62755   0.00000  Uiso   1.00
C158   C     0.18100   0.75588   0.57505   0.00000  Uiso   1.00
C159   C     0.91486   0.70459   0.61912   0.00000  Uiso   1.00
C160   C     0.85598   0.75791   0.61758   0.00000  Uiso   1.00
C161   C     0.79250   0.74102   0.56051   0.00000  Uiso   1.00
H162   H     0.97801   0.53391   0.53618   0.00000  Uiso   1.00
H163   H     0.97881   0.43788   0.64948   0.00000  Uiso   1.00
H164   H     0.11029   0.57755   0.47700   0.00000  Uiso   1.00
H165   H     0.84375   0.56735   0.46704   0.00000  Uiso   1.00
H166   H     0.98165   0.36131   0.79872   0.00000  Uiso   1.00
H167   H     0.25886   0.65583   0.43502   0.00000  Uiso   1.00
H168   H     0.69682   0.63432   0.41400   0.00000  Uiso   1.00
H169   H     0.99282   0.76429   0.71819   0.00000  Uiso   1.00
H170   H     0.99443   0.68089   0.84148   0.00000  Uiso   1.00
H171   H     0.12591   0.82057   0.66901   0.00000  Uiso   1.00
H172   H     0.85937   0.81037   0.65904   0.00000  Uiso   1.00
H173   H     0.99433   0.55855   0.95456   0.00000  Uiso   1.00
H174   H     0.27154   0.85308   0.59086   0.00000  Uiso   1.00
H175   H     0.70950   0.83157   0.56984   0.00000  Uiso   1.00
O176   O     0.98881   0.40092   0.95446   0.00000  Uiso   1.00
O177   O     0.35249   0.78733   0.47729   0.00000  Uiso   1.00
O178   O     0.61510   0.75910   0.44972   0.00000  Uiso   1.00
N179   N     0.98440   0.41917   0.81847   0.00000  Uiso   1.00
N180   N     0.24358   0.69453   0.47845   0.00000  Uiso   1.00
N181   N     0.71813   0.67443   0.45878   0.00000  Uiso   1.00
N182   N     0.99122   0.52531   0.90233   0.00000  Uiso   1.00
N183   N     0.25040   0.80067   0.56230   0.00000  Uiso   1.00
N184   N     0.72495   0.78056   0.54264   0.00000  Uiso   1.00
C185   C     0.57822   0.98147   0.58666   0.00000  Uiso   1.00
C186   C     0.66487   0.98392   0.56639   0.00000  Uiso   1.00
C187   C     0.69111   0.98218   0.49019   0.00000  Uiso   1.00
C188   C     0.77281   0.98497   0.48422   0.00000  Uiso   1.00
C189   C     0.89923   0.98816   0.44244   0.00000  Uiso   1.00
C190   C     0.57130   0.05547   0.64239   0.00000  Uiso   1.00
C191   C     0.51886   0.11388   0.63009   0.00000  Uiso   1.00
C192   C     0.52178   0.17691   0.68811   0.00000  Uiso   1.00
C193   C     0.50289   0.29115   0.76435   0.00000  Uiso   1.00
C194   C     0.56593   0.91054   0.63678   0.00000  Uiso   1.00
C195   C     0.50895   0.84709   0.61978   0.00000  Uiso   1.00
C196   C     0.50733   0.78809   0.67309   0.00000  Uiso   1.00
C197   C     0.48010   0.67730   0.74062   0.00000  Uiso   1.00
C198   C     0.67664   0.98952   0.71157   0.00000  Uiso   1.00
C199   C     0.71833   0.98830   0.63424   0.00000  Uiso   1.00
C200   C     0.80001   0.99109   0.62839   0.00000  Uiso   1.00
C201   C     0.82637   0.98935   0.55219   0.00000  Uiso   1.00
C202   C     0.62476   0.05985   0.71024   0.00000  Uiso   1.00
C203   C     0.62776   0.12280   0.76829   0.00000  Uiso   1.00
C204   C     0.57534   0.18129   0.75608   0.00000  Uiso   1.00
C205   C     0.61939   0.91491   0.70463   0.00000  Uiso   1.00
C206   C     0.61785   0.85600   0.75798   0.00000  Uiso   1.00
C207   C     0.56089   0.79248   0.74106   0.00000  Uiso   1.00
H208   H     0.53659   0.97807   0.53384   0.00000  Uiso   1.00
H209   H     0.64972   0.97880   0.43770   0.00000  Uiso   1.00
H210   H     0.47749   0.11048   0.57759   0.00000  Uiso   1.00
H211   H     0.46759   0.84373   0.56728   0.00000  Uiso   1.00
H212   H     0.79872   0.98158   0.36104   0.00000  Uiso   1.00
H213   H     0.43554   0.25921   0.65601   0.00000  Uiso   1.00
H214   H     0.41466   0.69671   0.63426   0.00000  Uiso   1.00
H215   H     0.71827   0.99293   0.76439   0.00000  Uiso   1.00
H216   H     0.84137   0.99448   0.68090   0.00000  Uiso   1.00
H217   H     0.66913   0.12616   0.82078   0.00000  Uiso   1.00
H218   H     0.65923   0.85941   0.81047   0.00000  Uiso   1.00
H219   H     0.95427   0.99431   0.55842   0.00000  Uiso   1.00
H220   H     0.59109   0.27194   0.85340   0.00000  Uiso   1.00
H221   H     0.57021   0.70944   0.83165   0.00000  Uiso   1.00
O222   O     0.95419   0.98872   0.40065   0.00000  Uiso   1.00
O223   O     0.47771   0.35296   0.78764   0.00000  Uiso   1.00
O224   O     0.45032   0.61497   0.75912   0.00000  Uiso   1.00
N225   N     0.81843   0.98434   0.41895   0.00000  Uiso   1.00
N226   N     0.47889   0.24392   0.69472   0.00000  Uiso   1.00
N227   N     0.45936   0.71805   0.67441   0.00000  Uiso   1.00
N228   N     0.90213   0.99119   0.52516   0.00000  Uiso   1.00
N229   N     0.56259   0.25077   0.80093   0.00000  Uiso   1.00
N230   N     0.54305   0.72489   0.78062   0.00000  Uiso   1.00
C231   C     0.58665   0.57806   0.98161   0.00000  Uiso   1.00
C232   C     0.56641   0.66479   0.98411   0.00000  Uiso   1.00
C233   C     0.49033   0.69107   0.98239   0.00000  Uiso   1.00
C234   C     0.48435   0.77283   0.98522   0.00000  Uiso   1.00
C235   C     0.44262   0.89937   0.98847   0.00000  Uiso   1.00
C236   C     0.64228   0.57116   0.05567   0.00000  Uiso   1.00
C237   C     0.63001   0.51870   0.11412   0.00000  Uiso   1.00
C238   C     0.68792   0.52163   0.17718   0.00000  Uiso   1.00
C239   C     0.76401   0.50275   0.29150   0.00000  Uiso   1.00
C240   C     0.63671   0.56572   0.91061   0.00000  Uiso   1.00
C241   C     0.61975   0.50868   0.84709   0.00000  Uiso   1.00
C242   C     0.67298   0.50702   0.78803   0.00000  Uiso   1.00
C243   C     0.74041   0.47971   0.67711   0.00000  Uiso   1.00
C244   C     0.71133   0.67654   0.98969   0.00000  Uiso   1.00
C245   C     0.63413   0.71828   0.98850   0.00000  Uiso   1.00
C246   C     0.62827   0.80003   0.99132   0.00000  Uiso   1.00
C247   C     0.55220   0.82642   0.98961   0.00000  Uiso   1.00
C248   C     0.71000   0.62464   0.06006   0.00000  Uiso   1.00
C249   C     0.76795   0.62765   0.12305   0.00000  Uiso   1.00
C250   C     0.75576   0.57522   0.18158   0.00000  Uiso   1.00
C251   C     0.70443   0.61921   0.91499   0.00000  Uiso   1.00
C252   C     0.75769   0.61764   0.85602   0.00000  Uiso   1.00
C253   C     0.74082   0.56061   0.79242   0.00000  Uiso   1.00
H254   H     0.53393   0.53642   0.97820   0.00000  Uiso   1.00
H255   H     0.43793   0.64966   0.97901   0.00000  Uiso   1.00
H256   H     0.57760   0.47731   0.11070   0.00000  Uiso   1.00
H257   H     0.56734   0.46729   0.84371   0.00000  Uiso   1.00
H258   H     0.36137   0.79879   0.98186   0.00000  Uiso   1.00
H259   H     0.65587   0.43536   0.25953   0.00000  Uiso   1.00
H260   H     0.63425   0.41425   0.69654   0.00000  Uiso   1.00
H261   H     0.76406   0.71818   0.99310   0.00000  Uiso   1.00
H262   H     0.68069   0.84140   0.99472   0.00000  Uiso   1.00
H263   H     0.82035   0.66905   0.12642   0.00000  Uiso   1.00
H264   H     0.81009   0.65904   0.85943   0.00000  Uiso   1.00
H265   H     0.55840   0.95442   0.99462   0.00000  Uiso   1.00
H266   H     0.85290   0.59099   0.27229   0.00000  Uiso   1.00
H267   H     0.83127   0.56988   0.70929   0.00000  Uiso   1.00
O268   O     0.40089   0.95439   0.98906   0.00000  Uiso   1.00
O269   O     0.78727   0.47757   0.35335   0.00000  Uiso   1.00
O270   O     0.75889   0.44987   0.61471   0.00000  Uiso   1.00
N271   N     0.41918   0.81851   0.98462   0.00000  Uiso   1.00
N272   N     0.69452   0.47873   0.24424   0.00000  Uiso   1.00
N273   N     0.67431   0.45898   0.71790   0.00000  Uiso   1.00
N274   N     0.52520   0.90225   0.99149   0.00000  Uiso   1.00
N275   N     0.80053   0.56248   0.25110   0.00000  Uiso   1.00
N276   N     0.78033   0.54272   0.72476   0.00000  Uiso   1.00
