data_job_04710
_audit_creation_date              2018-12-19
_audit_creation_method            'Materials Studio'
_symmetry_space_group_name_H-M    'P1'
_symmetry_Int_Tables_number       1
_symmetry_cell_setting            triclinic
loop_
_symmetry_equiv_pos_as_xyz
  x,y,z
_cell_length_a                    27.9220
_cell_length_b                    9.9684
_cell_length_c                    27.0405
_cell_angle_alpha                 90.0000
_cell_angle_beta                  135.8680
_cell_angle_gamma                 90.0000
loop_
_atom_site_label
_atom_site_type_symbol
_atom_site_fract_x
_atom_site_fract_y
_atom_site_fract_z
_atom_site_U_iso_or_equiv
_atom_site_adp_type
_atom_site_occupancy
C1     C     0.49518   0.28953   0.91041   0.00000  Uiso   1.00
C2     C     0.54873   0.20710   0.92228   0.00000  Uiso   1.00
C3     C     0.61747   0.19399   0.98616   0.00000  Uiso   1.00
C4     C     0.65812   0.11408   0.98604   0.00000  Uiso   1.00
C5     C     0.74542   0.99595   0.01385   0.00000  Uiso   1.00
C6     C     0.46532   0.38755   0.85069   0.00000  Uiso   1.00
C7     C     0.46393   0.52616   0.85438   0.00000  Uiso   1.00
C8     C     0.43435   0.59815   0.79398   0.00000  Uiso   1.00
C9     C     0.39210   0.76016   0.71064   0.00000  Uiso   1.00
C10    C     0.43717   0.19267   0.88028   0.00000  Uiso   1.00
C11    C     0.41209   0.16744   0.90883   0.00000  Uiso   1.00
C12    C     0.35879   0.07537   0.87335   0.00000  Uiso   1.00
C13    C     0.27284   0.93480   0.83595   0.00000  Uiso   1.00
C14    C     0.44510   0.17092   0.79660   0.00000  Uiso   1.00
C15    C     0.52153   0.14268   0.86045   0.00000  Uiso   1.00
C16    C     0.56208   0.06277   0.86023   0.00000  Uiso   1.00
C17    C     0.63087   0.04954   0.92411   0.00000  Uiso   1.00
C18    C     0.43812   0.32314   0.78887   0.00000  Uiso   1.00
C19    C     0.40853   0.39494   0.72845   0.00000  Uiso   1.00
C20    C     0.40710   0.53362   0.73205   0.00000  Uiso   1.00
C21    C     0.40997   0.12824   0.81846   0.00000  Uiso   1.00
C22    C     0.35669   0.03621   0.78291   0.00000  Uiso   1.00
C23    C     0.33154   0.01084   0.81141   0.00000  Uiso   1.00
H24    H     0.51635   0.33969   0.95854   0.00000  Uiso   1.00
H25    H     0.63851   0.24387   0.03399   0.00000  Uiso   1.00
H26    H     0.48497   0.57598   0.90222   0.00000  Uiso   1.00
H27    H     0.43315   0.21731   0.95667   0.00000  Uiso   1.00
H28    H     0.76195   0.10927   0.09036   0.00000  Uiso   1.00
H29    H     0.43820   0.80954   0.81252   0.00000  Uiso   1.00
H30    H     0.32891   0.05321   0.92735   0.00000  Uiso   1.00
H31    H     0.42393   0.12077   0.74846   0.00000  Uiso   1.00
H32    H     0.54101   0.01293   0.81239   0.00000  Uiso   1.00
H33    H     0.38748   0.34505   0.68062   0.00000  Uiso   1.00
H34    H     0.33566   0.98637   0.73508   0.00000  Uiso   1.00
H35    H     0.68282   0.92183   0.91051   0.00000  Uiso   1.00
H36    H     0.35907   0.62211   0.63266   0.00000  Uiso   1.00
H37    H     0.24979   0.86578   0.74749   0.00000  Uiso   1.00
O38    O     0.80108   0.94860   0.04627   0.00000  Uiso   1.00
O39    O     0.37633   0.86733   0.68175   0.00000  Uiso   1.00
O40    O     0.23295   0.87504   0.83240   0.00000  Uiso   1.00
N41    N     0.72726   0.07993   0.03927   0.00000  Uiso   1.00
N42    N     0.42458   0.73465   0.77951   0.00000  Uiso   1.00
N43    N     0.32239   0.02757   0.88685   0.00000  Uiso   1.00
N44    N     0.68468   0.97907   0.94249   0.00000  Uiso   1.00
N45    N     0.38200   0.63379   0.68272   0.00000  Uiso   1.00
N46    N     0.27982   0.92671   0.79007   0.00000  Uiso   1.00
C47    C     0.99518   0.78953   0.91041   0.00000  Uiso   1.00
C48    C     0.04873   0.70710   0.92228   0.00000  Uiso   1.00
C49    C     0.11747   0.69399   0.98616   0.00000  Uiso   1.00
C50    C     0.15812   0.61408   0.98604   0.00000  Uiso   1.00
C51    C     0.24542   0.49595   0.01385   0.00000  Uiso   1.00
C52    C     0.96532   0.88755   0.85069   0.00000  Uiso   1.00
C53    C     0.96393   0.02616   0.85438   0.00000  Uiso   1.00
C54    C     0.93435   0.09815   0.79398   0.00000  Uiso   1.00
C55    C     0.89210   0.26016   0.71064   0.00000  Uiso   1.00
C56    C     0.93717   0.69267   0.88028   0.00000  Uiso   1.00
C57    C     0.91209   0.66744   0.90883   0.00000  Uiso   1.00
C58    C     0.85879   0.57537   0.87335   0.00000  Uiso   1.00
C59    C     0.77284   0.43480   0.83595   0.00000  Uiso   1.00
C60    C     0.94510   0.67092   0.79660   0.00000  Uiso   1.00
C61    C     0.02153   0.64268   0.86045   0.00000  Uiso   1.00
C62    C     0.06208   0.56277   0.86023   0.00000  Uiso   1.00
C63    C     0.13087   0.54954   0.92411   0.00000  Uiso   1.00
C64    C     0.93812   0.82314   0.78887   0.00000  Uiso   1.00
C65    C     0.90853   0.89494   0.72845   0.00000  Uiso   1.00
C66    C     0.90710   0.03362   0.73205   0.00000  Uiso   1.00
C67    C     0.90997   0.62824   0.81846   0.00000  Uiso   1.00
C68    C     0.85669   0.53621   0.78291   0.00000  Uiso   1.00
C69    C     0.83154   0.51084   0.81141   0.00000  Uiso   1.00
H70    H     0.01635   0.83969   0.95854   0.00000  Uiso   1.00
H71    H     0.13851   0.74387   0.03399   0.00000  Uiso   1.00
H72    H     0.98497   0.07598   0.90222   0.00000  Uiso   1.00
H73    H     0.93315   0.71731   0.95667   0.00000  Uiso   1.00
H74    H     0.26195   0.60927   0.09036   0.00000  Uiso   1.00
H75    H     0.93820   0.30954   0.81252   0.00000  Uiso   1.00
H76    H     0.82891   0.55321   0.92735   0.00000  Uiso   1.00
H77    H     0.92393   0.62077   0.74846   0.00000  Uiso   1.00
H78    H     0.04101   0.51293   0.81239   0.00000  Uiso   1.00
H79    H     0.88748   0.84505   0.68062   0.00000  Uiso   1.00
H80    H     0.83566   0.48637   0.73508   0.00000  Uiso   1.00
H81    H     0.18282   0.42183   0.91051   0.00000  Uiso   1.00
H82    H     0.85907   0.12211   0.63266   0.00000  Uiso   1.00
H83    H     0.74979   0.36578   0.74749   0.00000  Uiso   1.00
O84    O     0.30108   0.44860   0.04627   0.00000  Uiso   1.00
O85    O     0.87633   0.36733   0.68175   0.00000  Uiso   1.00
O86    O     0.73295   0.37504   0.83240   0.00000  Uiso   1.00
N87    N     0.22726   0.57993   0.03927   0.00000  Uiso   1.00
N88    N     0.92458   0.23465   0.77951   0.00000  Uiso   1.00
N89    N     0.82239   0.52757   0.88685   0.00000  Uiso   1.00
N90    N     0.18468   0.47907   0.94249   0.00000  Uiso   1.00
N91    N     0.88200   0.13379   0.68272   0.00000  Uiso   1.00
N92    N     0.77982   0.42671   0.79007   0.00000  Uiso   1.00
C93    C     0.50482   0.28953   0.58959   0.00000  Uiso   1.00
C94    C     0.45127   0.20710   0.57772   0.00000  Uiso   1.00
C95    C     0.38253   0.19399   0.51384   0.00000  Uiso   1.00
C96    C     0.34188   0.11408   0.51396   0.00000  Uiso   1.00
C97    C     0.25458   0.99595   0.48615   0.00000  Uiso   1.00
C98    C     0.53468   0.38755   0.64931   0.00000  Uiso   1.00
C99    C     0.53607   0.52616   0.64562   0.00000  Uiso   1.00
C100   C     0.56565   0.59815   0.70602   0.00000  Uiso   1.00
C101   C     0.60790   0.76016   0.78936   0.00000  Uiso   1.00
C102   C     0.56283   0.19267   0.61972   0.00000  Uiso   1.00
C103   C     0.58791   0.16744   0.59117   0.00000  Uiso   1.00
C104   C     0.64121   0.07537   0.62665   0.00000  Uiso   1.00
C105   C     0.72716   0.93480   0.66405   0.00000  Uiso   1.00
C106   C     0.55490   0.17092   0.70340   0.00000  Uiso   1.00
C107   C     0.47847   0.14268   0.63955   0.00000  Uiso   1.00
C108   C     0.43792   0.06277   0.63977   0.00000  Uiso   1.00
C109   C     0.36913   0.04954   0.57589   0.00000  Uiso   1.00
C110   C     0.56188   0.32314   0.71113   0.00000  Uiso   1.00
C111   C     0.59147   0.39494   0.77155   0.00000  Uiso   1.00
C112   C     0.59290   0.53362   0.76795   0.00000  Uiso   1.00
C113   C     0.59003   0.12824   0.68154   0.00000  Uiso   1.00
C114   C     0.64331   0.03621   0.71709   0.00000  Uiso   1.00
C115   C     0.66846   0.01084   0.68859   0.00000  Uiso   1.00
H116   H     0.48365   0.33969   0.54146   0.00000  Uiso   1.00
H117   H     0.36149   0.24387   0.46601   0.00000  Uiso   1.00
H118   H     0.51503   0.57598   0.59778   0.00000  Uiso   1.00
H119   H     0.56685   0.21731   0.54333   0.00000  Uiso   1.00
H120   H     0.23805   0.10927   0.40964   0.00000  Uiso   1.00
H121   H     0.56180   0.80954   0.68748   0.00000  Uiso   1.00
H122   H     0.67109   0.05321   0.57265   0.00000  Uiso   1.00
H123   H     0.57607   0.12077   0.75154   0.00000  Uiso   1.00
H124   H     0.45899   0.01293   0.68761   0.00000  Uiso   1.00
H125   H     0.61252   0.34505   0.81938   0.00000  Uiso   1.00
H126   H     0.66434   0.98637   0.76492   0.00000  Uiso   1.00
H127   H     0.31718   0.92183   0.58949   0.00000  Uiso   1.00
H128   H     0.64093   0.62211   0.86734   0.00000  Uiso   1.00
H129   H     0.75021   0.86578   0.75251   0.00000  Uiso   1.00
O130   O     0.19892   0.94860   0.45373   0.00000  Uiso   1.00
O131   O     0.62367   0.86733   0.81825   0.00000  Uiso   1.00
O132   O     0.76705   0.87504   0.66760   0.00000  Uiso   1.00
N133   N     0.27274   0.07993   0.46073   0.00000  Uiso   1.00
N134   N     0.57542   0.73465   0.72049   0.00000  Uiso   1.00
N135   N     0.67761   0.02757   0.61315   0.00000  Uiso   1.00
N136   N     0.31532   0.97907   0.55751   0.00000  Uiso   1.00
N137   N     0.61800   0.63379   0.81728   0.00000  Uiso   1.00
N138   N     0.72018   0.92671   0.70993   0.00000  Uiso   1.00
C139   C     0.00482   0.78953   0.58959   0.00000  Uiso   1.00
C140   C     0.95127   0.70710   0.57772   0.00000  Uiso   1.00
C141   C     0.88253   0.69399   0.51384   0.00000  Uiso   1.00
C142   C     0.84188   0.61408   0.51396   0.00000  Uiso   1.00
C143   C     0.75458   0.49595   0.48615   0.00000  Uiso   1.00
C144   C     0.03468   0.88755   0.64931   0.00000  Uiso   1.00
C145   C     0.03607   0.02616   0.64562   0.00000  Uiso   1.00
C146   C     0.06565   0.09815   0.70602   0.00000  Uiso   1.00
C147   C     0.10790   0.26016   0.78936   0.00000  Uiso   1.00
C148   C     0.06283   0.69267   0.61972   0.00000  Uiso   1.00
C149   C     0.08791   0.66744   0.59117   0.00000  Uiso   1.00
C150   C     0.14121   0.57537   0.62665   0.00000  Uiso   1.00
C151   C     0.22716   0.43480   0.66405   0.00000  Uiso   1.00
C152   C     0.05490   0.67092   0.70340   0.00000  Uiso   1.00
C153   C     0.97847   0.64268   0.63955   0.00000  Uiso   1.00
C154   C     0.93792   0.56277   0.63977   0.00000  Uiso   1.00
C155   C     0.86913   0.54954   0.57589   0.00000  Uiso   1.00
C156   C     0.06188   0.82314   0.71113   0.00000  Uiso   1.00
C157   C     0.09147   0.89494   0.77155   0.00000  Uiso   1.00
C158   C     0.09290   0.03362   0.76795   0.00000  Uiso   1.00
C159   C     0.09003   0.62824   0.68154   0.00000  Uiso   1.00
C160   C     0.14331   0.53621   0.71709   0.00000  Uiso   1.00
C161   C     0.16846   0.51084   0.68859   0.00000  Uiso   1.00
H162   H     0.98365   0.83969   0.54146   0.00000  Uiso   1.00
H163   H     0.86149   0.74387   0.46601   0.00000  Uiso   1.00
H164   H     0.01503   0.07598   0.59778   0.00000  Uiso   1.00
H165   H     0.06685   0.71731   0.54333   0.00000  Uiso   1.00
H166   H     0.73805   0.60927   0.40964   0.00000  Uiso   1.00
H167   H     0.06180   0.30954   0.68748   0.00000  Uiso   1.00
H168   H     0.17109   0.55321   0.57265   0.00000  Uiso   1.00
H169   H     0.07607   0.62077   0.75154   0.00000  Uiso   1.00
H170   H     0.95899   0.51293   0.68761   0.00000  Uiso   1.00
H171   H     0.11252   0.84505   0.81938   0.00000  Uiso   1.00
H172   H     0.16434   0.48637   0.76492   0.00000  Uiso   1.00
H173   H     0.81718   0.42183   0.58949   0.00000  Uiso   1.00
H174   H     0.14093   0.12211   0.86734   0.00000  Uiso   1.00
H175   H     0.25021   0.36578   0.75251   0.00000  Uiso   1.00
O176   O     0.69892   0.44860   0.45373   0.00000  Uiso   1.00
O177   O     0.12367   0.36733   0.81825   0.00000  Uiso   1.00
O178   O     0.26705   0.37504   0.66760   0.00000  Uiso   1.00
N179   N     0.77274   0.57993   0.46073   0.00000  Uiso   1.00
N180   N     0.07542   0.23465   0.72049   0.00000  Uiso   1.00
N181   N     0.17761   0.52757   0.61315   0.00000  Uiso   1.00
N182   N     0.81532   0.47907   0.55751   0.00000  Uiso   1.00
N183   N     0.11800   0.13379   0.81728   0.00000  Uiso   1.00
N184   N     0.22018   0.42671   0.70993   0.00000  Uiso   1.00
C185   C     0.50482   0.71047   0.08959   0.00000  Uiso   1.00
C186   C     0.45127   0.79290   0.07772   0.00000  Uiso   1.00
C187   C     0.38253   0.80601   0.01384   0.00000  Uiso   1.00
C188   C     0.34188   0.88592   0.01396   0.00000  Uiso   1.00
C189   C     0.25458   0.00405   0.98615   0.00000  Uiso   1.00
C190   C     0.53468   0.61245   0.14931   0.00000  Uiso   1.00
C191   C     0.53607   0.47384   0.14562   0.00000  Uiso   1.00
C192   C     0.56565   0.40185   0.20602   0.00000  Uiso   1.00
C193   C     0.60790   0.23984   0.28936   0.00000  Uiso   1.00
C194   C     0.56283   0.80733   0.11972   0.00000  Uiso   1.00
C195   C     0.58791   0.83256   0.09117   0.00000  Uiso   1.00
C196   C     0.64121   0.92463   0.12665   0.00000  Uiso   1.00
C197   C     0.72716   0.06520   0.16405   0.00000  Uiso   1.00
C198   C     0.55490   0.82908   0.20340   0.00000  Uiso   1.00
C199   C     0.47847   0.85732   0.13955   0.00000  Uiso   1.00
C200   C     0.43792   0.93723   0.13977   0.00000  Uiso   1.00
C201   C     0.36913   0.95046   0.07589   0.00000  Uiso   1.00
C202   C     0.56188   0.67686   0.21113   0.00000  Uiso   1.00
C203   C     0.59147   0.60506   0.27155   0.00000  Uiso   1.00
C204   C     0.59290   0.46638   0.26795   0.00000  Uiso   1.00
C205   C     0.59003   0.87176   0.18154   0.00000  Uiso   1.00
C206   C     0.64331   0.96379   0.21709   0.00000  Uiso   1.00
C207   C     0.66846   0.98916   0.18859   0.00000  Uiso   1.00
H208   H     0.48365   0.66031   0.04146   0.00000  Uiso   1.00
H209   H     0.36149   0.75613   0.96601   0.00000  Uiso   1.00
H210   H     0.51503   0.42402   0.09778   0.00000  Uiso   1.00
H211   H     0.56685   0.78269   0.04333   0.00000  Uiso   1.00
H212   H     0.23805   0.89073   0.90964   0.00000  Uiso   1.00
H213   H     0.56180   0.19046   0.18748   0.00000  Uiso   1.00
H214   H     0.67109   0.94679   0.07265   0.00000  Uiso   1.00
H215   H     0.57607   0.87923   0.25154   0.00000  Uiso   1.00
H216   H     0.45899   0.98707   0.18761   0.00000  Uiso   1.00
H217   H     0.61252   0.65495   0.31938   0.00000  Uiso   1.00
H218   H     0.66434   0.01363   0.26492   0.00000  Uiso   1.00
H219   H     0.31718   0.07817   0.08949   0.00000  Uiso   1.00
H220   H     0.64093   0.37789   0.36734   0.00000  Uiso   1.00
H221   H     0.75021   0.13422   0.25251   0.00000  Uiso   1.00
O222   O     0.19892   0.05140   0.95373   0.00000  Uiso   1.00
O223   O     0.62367   0.13267   0.31825   0.00000  Uiso   1.00
O224   O     0.76705   0.12496   0.16760   0.00000  Uiso   1.00
N225   N     0.27274   0.92007   0.96073   0.00000  Uiso   1.00
N226   N     0.57542   0.26535   0.22049   0.00000  Uiso   1.00
N227   N     0.67761   0.97243   0.11315   0.00000  Uiso   1.00
N228   N     0.31532   0.02093   0.05751   0.00000  Uiso   1.00
N229   N     0.61800   0.36621   0.31728   0.00000  Uiso   1.00
N230   N     0.72018   0.07329   0.20993   0.00000  Uiso   1.00
C231   C     0.00482   0.21047   0.08959   0.00000  Uiso   1.00
C232   C     0.95127   0.29290   0.07772   0.00000  Uiso   1.00
C233   C     0.88253   0.30601   0.01384   0.00000  Uiso   1.00
C234   C     0.84188   0.38592   0.01396   0.00000  Uiso   1.00
C235   C     0.75458   0.50405   0.98615   0.00000  Uiso   1.00
C236   C     0.03468   0.11245   0.14931   0.00000  Uiso   1.00
C237   C     0.03607   0.97384   0.14562   0.00000  Uiso   1.00
C238   C     0.06565   0.90185   0.20602   0.00000  Uiso   1.00
C239   C     0.10790   0.73984   0.28936   0.00000  Uiso   1.00
C240   C     0.06283   0.30733   0.11972   0.00000  Uiso   1.00
C241   C     0.08791   0.33256   0.09117   0.00000  Uiso   1.00
C242   C     0.14121   0.42463   0.12665   0.00000  Uiso   1.00
C243   C     0.22716   0.56520   0.16405   0.00000  Uiso   1.00
C244   C     0.05490   0.32908   0.20340   0.00000  Uiso   1.00
C245   C     0.97847   0.35732   0.13955   0.00000  Uiso   1.00
C246   C     0.93792   0.43723   0.13977   0.00000  Uiso   1.00
C247   C     0.86913   0.45046   0.07589   0.00000  Uiso   1.00
C248   C     0.06188   0.17686   0.21113   0.00000  Uiso   1.00
C249   C     0.09147   0.10506   0.27155   0.00000  Uiso   1.00
C250   C     0.09290   0.96638   0.26795   0.00000  Uiso   1.00
C251   C     0.09003   0.37176   0.18154   0.00000  Uiso   1.00
C252   C     0.14331   0.46379   0.21709   0.00000  Uiso   1.00
C253   C     0.16846   0.48916   0.18859   0.00000  Uiso   1.00
H254   H     0.98365   0.16031   0.04146   0.00000  Uiso   1.00
H255   H     0.86149   0.25613   0.96601   0.00000  Uiso   1.00
H256   H     0.01503   0.92402   0.09778   0.00000  Uiso   1.00
H257   H     0.06685   0.28269   0.04333   0.00000  Uiso   1.00
H258   H     0.73805   0.39073   0.90964   0.00000  Uiso   1.00
H259   H     0.06180   0.69046   0.18748   0.00000  Uiso   1.00
H260   H     0.17109   0.44679   0.07265   0.00000  Uiso   1.00
H261   H     0.07607   0.37923   0.25154   0.00000  Uiso   1.00
H262   H     0.95899   0.48707   0.18761   0.00000  Uiso   1.00
H263   H     0.11252   0.15495   0.31938   0.00000  Uiso   1.00
H264   H     0.16434   0.51363   0.26492   0.00000  Uiso   1.00
H265   H     0.81718   0.57817   0.08949   0.00000  Uiso   1.00
H266   H     0.14093   0.87789   0.36734   0.00000  Uiso   1.00
H267   H     0.25021   0.63422   0.25251   0.00000  Uiso   1.00
O268   O     0.69892   0.55140   0.95373   0.00000  Uiso   1.00
O269   O     0.12367   0.63267   0.31825   0.00000  Uiso   1.00
O270   O     0.26705   0.62496   0.16760   0.00000  Uiso   1.00
N271   N     0.77274   0.42007   0.96073   0.00000  Uiso   1.00
N272   N     0.07542   0.76535   0.22049   0.00000  Uiso   1.00
N273   N     0.17761   0.47243   0.11315   0.00000  Uiso   1.00
N274   N     0.81532   0.52093   0.05751   0.00000  Uiso   1.00
N275   N     0.11800   0.86621   0.31728   0.00000  Uiso   1.00
N276   N     0.22018   0.57329   0.20993   0.00000  Uiso   1.00
C277   C     0.49518   0.71047   0.41041   0.00000  Uiso   1.00
C278   C     0.54873   0.79290   0.42228   0.00000  Uiso   1.00
C279   C     0.61747   0.80601   0.48616   0.00000  Uiso   1.00
C280   C     0.65812   0.88592   0.48604   0.00000  Uiso   1.00
C281   C     0.74542   0.00405   0.51385   0.00000  Uiso   1.00
C282   C     0.46532   0.61245   0.35069   0.00000  Uiso   1.00
C283   C     0.46393   0.47384   0.35438   0.00000  Uiso   1.00
C284   C     0.43435   0.40185   0.29398   0.00000  Uiso   1.00
C285   C     0.39210   0.23984   0.21064   0.00000  Uiso   1.00
C286   C     0.43717   0.80733   0.38028   0.00000  Uiso   1.00
C287   C     0.41209   0.83256   0.40883   0.00000  Uiso   1.00
C288   C     0.35879   0.92463   0.37335   0.00000  Uiso   1.00
C289   C     0.27284   0.06520   0.33595   0.00000  Uiso   1.00
C290   C     0.44510   0.82908   0.29660   0.00000  Uiso   1.00
C291   C     0.52153   0.85732   0.36045   0.00000  Uiso   1.00
C292   C     0.56208   0.93723   0.36023   0.00000  Uiso   1.00
C293   C     0.63087   0.95046   0.42411   0.00000  Uiso   1.00
C294   C     0.43812   0.67686   0.28887   0.00000  Uiso   1.00
C295   C     0.40853   0.60506   0.22845   0.00000  Uiso   1.00
C296   C     0.40710   0.46638   0.23205   0.00000  Uiso   1.00
C297   C     0.40997   0.87176   0.31846   0.00000  Uiso   1.00
C298   C     0.35669   0.96379   0.28291   0.00000  Uiso   1.00
C299   C     0.33154   0.98916   0.31141   0.00000  Uiso   1.00
H300   H     0.51635   0.66031   0.45854   0.00000  Uiso   1.00
H301   H     0.63851   0.75613   0.53399   0.00000  Uiso   1.00
H302   H     0.48497   0.42402   0.40222   0.00000  Uiso   1.00
H303   H     0.43315   0.78269   0.45667   0.00000  Uiso   1.00
H304   H     0.76195   0.89073   0.59036   0.00000  Uiso   1.00
H305   H     0.43820   0.19046   0.31252   0.00000  Uiso   1.00
H306   H     0.32891   0.94679   0.42735   0.00000  Uiso   1.00
H307   H     0.42393   0.87923   0.24846   0.00000  Uiso   1.00
H308   H     0.54101   0.98707   0.31239   0.00000  Uiso   1.00
H309   H     0.38748   0.65495   0.18062   0.00000  Uiso   1.00
H310   H     0.33566   0.01363   0.23508   0.00000  Uiso   1.00
H311   H     0.68282   0.07817   0.41051   0.00000  Uiso   1.00
H312   H     0.35907   0.37789   0.13266   0.00000  Uiso   1.00
H313   H     0.24979   0.13422   0.24749   0.00000  Uiso   1.00
O314   O     0.80108   0.05140   0.54627   0.00000  Uiso   1.00
O315   O     0.37633   0.13267   0.18175   0.00000  Uiso   1.00
O316   O     0.23295   0.12496   0.33240   0.00000  Uiso   1.00
N317   N     0.72726   0.92007   0.53927   0.00000  Uiso   1.00
N318   N     0.42458   0.26535   0.27951   0.00000  Uiso   1.00
N319   N     0.32239   0.97243   0.38685   0.00000  Uiso   1.00
N320   N     0.68468   0.02093   0.44249   0.00000  Uiso   1.00
N321   N     0.38200   0.36621   0.18272   0.00000  Uiso   1.00
N322   N     0.27982   0.07329   0.29007   0.00000  Uiso   1.00
C323   C     0.99518   0.21047   0.41041   0.00000  Uiso   1.00
C324   C     0.04873   0.29290   0.42228   0.00000  Uiso   1.00
C325   C     0.11747   0.30601   0.48616   0.00000  Uiso   1.00
C326   C     0.15812   0.38592   0.48604   0.00000  Uiso   1.00
C327   C     0.24542   0.50405   0.51385   0.00000  Uiso   1.00
C328   C     0.96532   0.11245   0.35069   0.00000  Uiso   1.00
C329   C     0.96393   0.97384   0.35438   0.00000  Uiso   1.00
C330   C     0.93435   0.90185   0.29398   0.00000  Uiso   1.00
C331   C     0.89210   0.73984   0.21064   0.00000  Uiso   1.00
C332   C     0.93717   0.30733   0.38028   0.00000  Uiso   1.00
C333   C     0.91209   0.33256   0.40883   0.00000  Uiso   1.00
C334   C     0.85879   0.42463   0.37335   0.00000  Uiso   1.00
C335   C     0.77284   0.56520   0.33595   0.00000  Uiso   1.00
C336   C     0.94510   0.32908   0.29660   0.00000  Uiso   1.00
C337   C     0.02153   0.35732   0.36045   0.00000  Uiso   1.00
C338   C     0.06208   0.43723   0.36023   0.00000  Uiso   1.00
C339   C     0.13087   0.45046   0.42411   0.00000  Uiso   1.00
C340   C     0.93812   0.17686   0.28887   0.00000  Uiso   1.00
C341   C     0.90853   0.10506   0.22845   0.00000  Uiso   1.00
C342   C     0.90710   0.96638   0.23205   0.00000  Uiso   1.00
C343   C     0.90997   0.37176   0.31846   0.00000  Uiso   1.00
C344   C     0.85669   0.46379   0.28291   0.00000  Uiso   1.00
C345   C     0.83154   0.48916   0.31141   0.00000  Uiso   1.00
H346   H     0.01635   0.16031   0.45854   0.00000  Uiso   1.00
H347   H     0.13851   0.25613   0.53399   0.00000  Uiso   1.00
H348   H     0.98497   0.92402   0.40222   0.00000  Uiso   1.00
H349   H     0.93315   0.28269   0.45667   0.00000  Uiso   1.00
H350   H     0.26195   0.39073   0.59036   0.00000  Uiso   1.00
H351   H     0.93820   0.69046   0.31252   0.00000  Uiso   1.00
H352   H     0.82891   0.44679   0.42735   0.00000  Uiso   1.00
H353   H     0.92393   0.37923   0.24846   0.00000  Uiso   1.00
H354   H     0.04101   0.48707   0.31239   0.00000  Uiso   1.00
H355   H     0.88748   0.15495   0.18062   0.00000  Uiso   1.00
H356   H     0.83566   0.51363   0.23508   0.00000  Uiso   1.00
H357   H     0.18282   0.57817   0.41051   0.00000  Uiso   1.00
H358   H     0.85907   0.87789   0.13266   0.00000  Uiso   1.00
H359   H     0.74979   0.63422   0.24749   0.00000  Uiso   1.00
O360   O     0.30108   0.55140   0.54627   0.00000  Uiso   1.00
O361   O     0.87633   0.63267   0.18175   0.00000  Uiso   1.00
O362   O     0.73295   0.62496   0.33240   0.00000  Uiso   1.00
N363   N     0.22726   0.42007   0.53927   0.00000  Uiso   1.00
N364   N     0.92458   0.76535   0.27951   0.00000  Uiso   1.00
N365   N     0.82239   0.47243   0.38685   0.00000  Uiso   1.00
N366   N     0.18468   0.52093   0.44249   0.00000  Uiso   1.00
N367   N     0.88200   0.86621   0.18272   0.00000  Uiso   1.00
N368   N     0.77982   0.57329   0.29007   0.00000  Uiso   1.00
