data_job_00114
_audit_creation_date              2018-12-19
_audit_creation_method            'Materials Studio'
_symmetry_space_group_name_H-M    'P1'
_symmetry_Int_Tables_number       1
_symmetry_cell_setting            triclinic
loop_
_symmetry_equiv_pos_as_xyz
  x,y,z
_cell_length_a                    10.1593
_cell_length_b                    27.5209
_cell_length_c                    17.5898
_cell_angle_alpha                 90.0000
_cell_angle_beta                  119.7060
_cell_angle_gamma                 90.0000
loop_
_atom_site_label
_atom_site_type_symbol
_atom_site_fract_x
_atom_site_fract_y
_atom_site_fract_z
_atom_site_U_iso_or_equiv
_atom_site_adp_type
_atom_site_occupancy
C1     C     0.92426   0.33145   0.90273   0.00000  Uiso   1.00
C2     C     0.99679   0.36560   0.86572   0.00000  Uiso   1.00
C3     C     0.13672   0.35900   0.87128   0.00000  Uiso   1.00
C4     C     0.18299   0.39437   0.83326   0.00000  Uiso   1.00
C5     C     0.30942   0.44125   0.78223   0.00000  Uiso   1.00
C6     C     0.89158   0.36225   0.96355   0.00000  Uiso   1.00
C7     C     0.94304   0.35282   0.05137   0.00000  Uiso   1.00
C8     C     0.90073   0.38537   0.09570   0.00000  Uiso   1.00
C9     C     0.86372   0.42702   0.19655   0.00000  Uiso   1.00
C10    C     0.77020   0.31761   0.82587   0.00000  Uiso   1.00
C11    C     0.71958   0.27064   0.79793   0.00000  Uiso   1.00
C12    C     0.57506   0.26561   0.72636   0.00000  Uiso   1.00
C13    C     0.34960   0.23795   0.61344   0.00000  Uiso   1.00
C14    C     0.75759   0.40602   0.82532   0.00000  Uiso   1.00
C15    C     0.90626   0.40611   0.82368   0.00000  Uiso   1.00
C16    C     0.95233   0.44150   0.78564   0.00000  Uiso   1.00
C17    C     0.09230   0.43495   0.79114   0.00000  Uiso   1.00
C18    C     0.80106   0.40275   0.92152   0.00000  Uiso   1.00
C19    C     0.75865   0.43532   0.96573   0.00000  Uiso   1.00
C20    C     0.81004   0.42595   0.05359   0.00000  Uiso   1.00
C21    C     0.67967   0.35811   0.78383   0.00000  Uiso   1.00
C22    C     0.53520   0.35315   0.71229   0.00000  Uiso   1.00
C23    C     0.48437   0.30619   0.68425   0.00000  Uiso   1.00
H24    H     0.99473   0.29992   0.93546   0.00000  Uiso   1.00
H25    H     0.20675   0.32765   0.90382   0.00000  Uiso   1.00
H26    H     0.01308   0.32147   0.08388   0.00000  Uiso   1.00
H27    H     0.78966   0.23931   0.83048   0.00000  Uiso   1.00
H28    H     0.40191   0.37626   0.85024   0.00000  Uiso   1.00
H29    H     0.99351   0.36323   0.22989   0.00000  Uiso   1.00
H30    H     0.52239   0.18997   0.69555   0.00000  Uiso   1.00
H31    H     0.68711   0.43756   0.79259   0.00000  Uiso   1.00
H32    H     0.88225   0.47284   0.75311   0.00000  Uiso   1.00
H33    H     0.68859   0.46666   0.93317   0.00000  Uiso   1.00
H34    H     0.46517   0.38450   0.67978   0.00000  Uiso   1.00
H35    H     0.13854   0.49411   0.72791   0.00000  Uiso   1.00
H36    H     0.73013   0.48107   0.10757   0.00000  Uiso   1.00
H37    H     0.25902   0.30782   0.57323   0.00000  Uiso   1.00
O38    O     0.40417   0.45592   0.76571   0.00000  Uiso   1.00
O39    O     0.86834   0.43881   0.26379   0.00000  Uiso   1.00
O40    O     0.25025   0.21151   0.56276   0.00000  Uiso   1.00
N41    N     0.31313   0.39915   0.82685   0.00000  Uiso   1.00
N42    N     0.93132   0.38697   0.18181   0.00000  Uiso   1.00
N43    N     0.49085   0.22499   0.68226   0.00000  Uiso   1.00
N44    N     0.17141   0.46256   0.76103   0.00000  Uiso   1.00
N45    N     0.78960   0.45038   0.11599   0.00000  Uiso   1.00
N46    N     0.34913   0.28840   0.61644   0.00000  Uiso   1.00
C47    C     0.66663   0.82756   0.10284   0.00000  Uiso   1.00
C48    C     0.74403   0.85980   0.06614   0.00000  Uiso   1.00
C49    C     0.88431   0.85117   0.07327   0.00000  Uiso   1.00
C50    C     0.93539   0.88502   0.03527   0.00000  Uiso   1.00
C51    C     0.06872   0.92886   0.98495   0.00000  Uiso   1.00
C52    C     0.63473   0.86009   0.16204   0.00000  Uiso   1.00
C53    C     0.68309   0.85169   0.24980   0.00000  Uiso   1.00
C54    C     0.64213   0.88578   0.29253   0.00000  Uiso   1.00
C55    C     0.60568   0.93004   0.39108   0.00000  Uiso   1.00
C56    C     0.51236   0.81450   0.02539   0.00000  Uiso   1.00
C57    C     0.45780   0.76778   0.99827   0.00000  Uiso   1.00
C58    C     0.31380   0.76349   0.92596   0.00000  Uiso   1.00
C59    C     0.08734   0.73698   0.81235   0.00000  Uiso   1.00
C60    C     0.50789   0.90301   0.02266   0.00000  Uiso   1.00
C61    C     0.65781   0.90079   0.02259   0.00000  Uiso   1.00
C62    C     0.70868   0.93465   0.98457   0.00000  Uiso   1.00
C63    C     0.84901   0.92608   0.99164   0.00000  Uiso   1.00
C64    C     0.54851   0.90107   0.11850   0.00000  Uiso   1.00
C65    C     0.50746   0.93517   0.16110   0.00000  Uiso   1.00
C66    C     0.55576   0.92684   0.24890   0.00000  Uiso   1.00
C67    C     0.42613   0.85549   0.98184   0.00000  Uiso   1.00
C68    C     0.28218   0.85126   0.90957   0.00000  Uiso   1.00
C69    C     0.22742   0.80455   0.88234   0.00000  Uiso   1.00
H70    H     0.73375   0.79565   0.13674   0.00000  Uiso   1.00
H71    H     0.95101   0.81945   0.10698   0.00000  Uiso   1.00
H72    H     0.74980   0.81997   0.28348   0.00000  Uiso   1.00
H73    H     0.52455   0.73607   0.03199   0.00000  Uiso   1.00
H74    H     0.15387   0.86392   0.05481   0.00000  Uiso   1.00
H75    H     0.72957   0.86501   0.42697   0.00000  Uiso   1.00
H76    H     0.25459   0.68809   0.89664   0.00000  Uiso   1.00
H77    H     0.44076   0.93492   0.98876   0.00000  Uiso   1.00
H78    H     0.64194   0.96637   0.95087   0.00000  Uiso   1.00
H79    H     0.44073   0.96688   0.12738   0.00000  Uiso   1.00
H80    H     0.21549   0.88299   0.87588   0.00000  Uiso   1.00
H81    H     0.90302   0.98317   0.92811   0.00000  Uiso   1.00
H82    H     0.47872   0.98425   0.30027   0.00000  Uiso   1.00
H83    H     0.00375   0.80733   0.76994   0.00000  Uiso   1.00
O84    O     0.16609   0.94173   0.96923   0.00000  Uiso   1.00
O85    O     0.60941   0.94314   0.45748   0.00000  Uiso   1.00
O86    O     0.98626   0.71103   0.76171   0.00000  Uiso   1.00
N87    N     0.06721   0.88767   0.03017   0.00000  Uiso   1.00
N88    N     0.67054   0.88868   0.37812   0.00000  Uiso   1.00
N89    N     0.22646   0.72328   0.88233   0.00000  Uiso   1.00
N90    N     0.93223   0.95183   0.96200   0.00000  Uiso   1.00
N91    N     0.53556   0.95284   0.30994   0.00000  Uiso   1.00
N92    N     0.09148   0.78744   0.81415   0.00000  Uiso   1.00
C93    C     0.07574   0.83145   0.59727   0.00000  Uiso   1.00
C94    C     0.00321   0.86560   0.63428   0.00000  Uiso   1.00
C95    C     0.86328   0.85900   0.62872   0.00000  Uiso   1.00
C96    C     0.81701   0.89437   0.66674   0.00000  Uiso   1.00
C97    C     0.69058   0.94125   0.71777   0.00000  Uiso   1.00
C98    C     0.10842   0.86225   0.53645   0.00000  Uiso   1.00
C99    C     0.05696   0.85282   0.44863   0.00000  Uiso   1.00
C100   C     0.09927   0.88537   0.40430   0.00000  Uiso   1.00
C101   C     0.13628   0.92702   0.30345   0.00000  Uiso   1.00
C102   C     0.22980   0.81761   0.67413   0.00000  Uiso   1.00
C103   C     0.28042   0.77064   0.70207   0.00000  Uiso   1.00
C104   C     0.42494   0.76561   0.77364   0.00000  Uiso   1.00
C105   C     0.65040   0.73795   0.88656   0.00000  Uiso   1.00
C106   C     0.24241   0.90602   0.67468   0.00000  Uiso   1.00
C107   C     0.09374   0.90611   0.67632   0.00000  Uiso   1.00
C108   C     0.04767   0.94150   0.71436   0.00000  Uiso   1.00
C109   C     0.90770   0.93495   0.70886   0.00000  Uiso   1.00
C110   C     0.19894   0.90275   0.57848   0.00000  Uiso   1.00
C111   C     0.24135   0.93532   0.53427   0.00000  Uiso   1.00
C112   C     0.18996   0.92595   0.44641   0.00000  Uiso   1.00
C113   C     0.32033   0.85811   0.71617   0.00000  Uiso   1.00
C114   C     0.46480   0.85315   0.78771   0.00000  Uiso   1.00
C115   C     0.51563   0.80619   0.81575   0.00000  Uiso   1.00
H116   H     0.00527   0.79992   0.56454   0.00000  Uiso   1.00
H117   H     0.79325   0.82765   0.59618   0.00000  Uiso   1.00
H118   H     0.98692   0.82147   0.41612   0.00000  Uiso   1.00
H119   H     0.21034   0.73931   0.66952   0.00000  Uiso   1.00
H120   H     0.59809   0.87626   0.64976   0.00000  Uiso   1.00
H121   H     0.00649   0.86323   0.27011   0.00000  Uiso   1.00
H122   H     0.47761   0.68997   0.80445   0.00000  Uiso   1.00
H123   H     0.31289   0.93756   0.70741   0.00000  Uiso   1.00
H124   H     0.11775   0.97284   0.74689   0.00000  Uiso   1.00
H125   H     0.31141   0.96666   0.56683   0.00000  Uiso   1.00
H126   H     0.53483   0.88450   0.82022   0.00000  Uiso   1.00
H127   H     0.86146   0.99411   0.77209   0.00000  Uiso   1.00
H128   H     0.26987   0.98107   0.39243   0.00000  Uiso   1.00
H129   H     0.74098   0.80782   0.92677   0.00000  Uiso   1.00
O130   O     0.59583   0.95592   0.73429   0.00000  Uiso   1.00
O131   O     0.13166   0.93881   0.23621   0.00000  Uiso   1.00
O132   O     0.74975   0.71151   0.93724   0.00000  Uiso   1.00
N133   N     0.68687   0.89915   0.67315   0.00000  Uiso   1.00
N134   N     0.06868   0.88697   0.31819   0.00000  Uiso   1.00
N135   N     0.50915   0.72499   0.81774   0.00000  Uiso   1.00
N136   N     0.82859   0.96256   0.73897   0.00000  Uiso   1.00
N137   N     0.21040   0.95038   0.38401   0.00000  Uiso   1.00
N138   N     0.65087   0.78840   0.88356   0.00000  Uiso   1.00
C139   C     0.33337   0.32756   0.39716   0.00000  Uiso   1.00
C140   C     0.25597   0.35980   0.43386   0.00000  Uiso   1.00
C141   C     0.11569   0.35117   0.42673   0.00000  Uiso   1.00
C142   C     0.06461   0.38502   0.46473   0.00000  Uiso   1.00
C143   C     0.93128   0.42886   0.51505   0.00000  Uiso   1.00
C144   C     0.36527   0.36009   0.33796   0.00000  Uiso   1.00
C145   C     0.31691   0.35169   0.25020   0.00000  Uiso   1.00
C146   C     0.35787   0.38578   0.20747   0.00000  Uiso   1.00
C147   C     0.39432   0.43004   0.10892   0.00000  Uiso   1.00
C148   C     0.48764   0.31450   0.47461   0.00000  Uiso   1.00
C149   C     0.54220   0.26778   0.50173   0.00000  Uiso   1.00
C150   C     0.68620   0.26349   0.57404   0.00000  Uiso   1.00
C151   C     0.91266   0.23698   0.68765   0.00000  Uiso   1.00
C152   C     0.49211   0.40301   0.47734   0.00000  Uiso   1.00
C153   C     0.34219   0.40079   0.47741   0.00000  Uiso   1.00
C154   C     0.29132   0.43465   0.51543   0.00000  Uiso   1.00
C155   C     0.15099   0.42608   0.50836   0.00000  Uiso   1.00
C156   C     0.45149   0.40107   0.38150   0.00000  Uiso   1.00
C157   C     0.49254   0.43517   0.33890   0.00000  Uiso   1.00
C158   C     0.44424   0.42684   0.25110   0.00000  Uiso   1.00
C159   C     0.57387   0.35549   0.51816   0.00000  Uiso   1.00
C160   C     0.71782   0.35126   0.59043   0.00000  Uiso   1.00
C161   C     0.77258   0.30455   0.61766   0.00000  Uiso   1.00
H162   H     0.26625   0.29565   0.36326   0.00000  Uiso   1.00
H163   H     0.04899   0.31945   0.39302   0.00000  Uiso   1.00
H164   H     0.25020   0.31997   0.21652   0.00000  Uiso   1.00
H165   H     0.47545   0.23607   0.46801   0.00000  Uiso   1.00
H166   H     0.84613   0.36392   0.44519   0.00000  Uiso   1.00
H167   H     0.27043   0.36501   0.07303   0.00000  Uiso   1.00
H168   H     0.74541   0.18809   0.60336   0.00000  Uiso   1.00
H169   H     0.55924   0.43492   0.51124   0.00000  Uiso   1.00
H170   H     0.35806   0.46637   0.54913   0.00000  Uiso   1.00
H171   H     0.55927   0.46688   0.37262   0.00000  Uiso   1.00
H172   H     0.78451   0.38299   0.62412   0.00000  Uiso   1.00
H173   H     0.09698   0.48317   0.57189   0.00000  Uiso   1.00
H174   H     0.52128   0.48425   0.19973   0.00000  Uiso   1.00
H175   H     0.99625   0.30733   0.73006   0.00000  Uiso   1.00
O176   O     0.83391   0.44173   0.53077   0.00000  Uiso   1.00
O177   O     0.39059   0.44314   0.04252   0.00000  Uiso   1.00
O178   O     0.01374   0.21103   0.73829   0.00000  Uiso   1.00
N179   N     0.93279   0.38767   0.46983   0.00000  Uiso   1.00
N180   N     0.32946   0.38868   0.12188   0.00000  Uiso   1.00
N181   N     0.77354   0.22328   0.61767   0.00000  Uiso   1.00
N182   N     0.06777   0.45183   0.53800   0.00000  Uiso   1.00
N183   N     0.46444   0.45284   0.19006   0.00000  Uiso   1.00
N184   N     0.90852   0.28744   0.68585   0.00000  Uiso   1.00
C185   C     0.07574   0.66855   0.09727   0.00000  Uiso   1.00
C186   C     0.00321   0.63440   0.13428   0.00000  Uiso   1.00
C187   C     0.86328   0.64100   0.12872   0.00000  Uiso   1.00
C188   C     0.81701   0.60563   0.16674   0.00000  Uiso   1.00
C189   C     0.69058   0.55875   0.21777   0.00000  Uiso   1.00
C190   C     0.10842   0.63775   0.03645   0.00000  Uiso   1.00
C191   C     0.05696   0.64718   0.94863   0.00000  Uiso   1.00
C192   C     0.09927   0.61463   0.90430   0.00000  Uiso   1.00
C193   C     0.13628   0.57298   0.80345   0.00000  Uiso   1.00
C194   C     0.22980   0.68239   0.17413   0.00000  Uiso   1.00
C195   C     0.28042   0.72936   0.20207   0.00000  Uiso   1.00
C196   C     0.42494   0.73439   0.27364   0.00000  Uiso   1.00
C197   C     0.65040   0.76205   0.38656   0.00000  Uiso   1.00
C198   C     0.24241   0.59398   0.17468   0.00000  Uiso   1.00
C199   C     0.09374   0.59389   0.17632   0.00000  Uiso   1.00
C200   C     0.04767   0.55850   0.21436   0.00000  Uiso   1.00
C201   C     0.90770   0.56505   0.20886   0.00000  Uiso   1.00
C202   C     0.19894   0.59725   0.07848   0.00000  Uiso   1.00
C203   C     0.24135   0.56468   0.03427   0.00000  Uiso   1.00
C204   C     0.18996   0.57405   0.94641   0.00000  Uiso   1.00
C205   C     0.32033   0.64189   0.21617   0.00000  Uiso   1.00
C206   C     0.46480   0.64685   0.28771   0.00000  Uiso   1.00
C207   C     0.51563   0.69381   0.31575   0.00000  Uiso   1.00
H208   H     0.00527   0.70008   0.06454   0.00000  Uiso   1.00
H209   H     0.79325   0.67235   0.09618   0.00000  Uiso   1.00
H210   H     0.98692   0.67853   0.91612   0.00000  Uiso   1.00
H211   H     0.21034   0.76069   0.16952   0.00000  Uiso   1.00
H212   H     0.59809   0.62374   0.14976   0.00000  Uiso   1.00
H213   H     0.00649   0.63677   0.77011   0.00000  Uiso   1.00
H214   H     0.47761   0.81003   0.30445   0.00000  Uiso   1.00
H215   H     0.31289   0.56244   0.20741   0.00000  Uiso   1.00
H216   H     0.11775   0.52716   0.24689   0.00000  Uiso   1.00
H217   H     0.31141   0.53334   0.06683   0.00000  Uiso   1.00
H218   H     0.53483   0.61550   0.32022   0.00000  Uiso   1.00
H219   H     0.86146   0.50589   0.27209   0.00000  Uiso   1.00
H220   H     0.26987   0.51893   0.89243   0.00000  Uiso   1.00
H221   H     0.74098   0.69218   0.42677   0.00000  Uiso   1.00
O222   O     0.59583   0.54408   0.23429   0.00000  Uiso   1.00
O223   O     0.13166   0.56119   0.73621   0.00000  Uiso   1.00
O224   O     0.74975   0.78849   0.43724   0.00000  Uiso   1.00
N225   N     0.68687   0.60085   0.17315   0.00000  Uiso   1.00
N226   N     0.06868   0.61303   0.81819   0.00000  Uiso   1.00
N227   N     0.50915   0.77501   0.31774   0.00000  Uiso   1.00
N228   N     0.82859   0.53744   0.23897   0.00000  Uiso   1.00
N229   N     0.21040   0.54962   0.88401   0.00000  Uiso   1.00
N230   N     0.65087   0.71160   0.38356   0.00000  Uiso   1.00
C231   C     0.33337   0.17244   0.89716   0.00000  Uiso   1.00
C232   C     0.25597   0.14020   0.93386   0.00000  Uiso   1.00
C233   C     0.11569   0.14883   0.92673   0.00000  Uiso   1.00
C234   C     0.06461   0.11498   0.96473   0.00000  Uiso   1.00
C235   C     0.93128   0.07114   0.01505   0.00000  Uiso   1.00
C236   C     0.36527   0.13991   0.83796   0.00000  Uiso   1.00
C237   C     0.31691   0.14831   0.75020   0.00000  Uiso   1.00
C238   C     0.35787   0.11422   0.70747   0.00000  Uiso   1.00
C239   C     0.39432   0.06996   0.60892   0.00000  Uiso   1.00
C240   C     0.48764   0.18550   0.97461   0.00000  Uiso   1.00
C241   C     0.54220   0.23222   0.00173   0.00000  Uiso   1.00
C242   C     0.68620   0.23651   0.07404   0.00000  Uiso   1.00
C243   C     0.91266   0.26302   0.18765   0.00000  Uiso   1.00
C244   C     0.49211   0.09699   0.97734   0.00000  Uiso   1.00
C245   C     0.34219   0.09921   0.97741   0.00000  Uiso   1.00
C246   C     0.29132   0.06535   0.01543   0.00000  Uiso   1.00
C247   C     0.15099   0.07392   0.00836   0.00000  Uiso   1.00
C248   C     0.45149   0.09893   0.88150   0.00000  Uiso   1.00
C249   C     0.49254   0.06483   0.83890   0.00000  Uiso   1.00
C250   C     0.44424   0.07316   0.75110   0.00000  Uiso   1.00
C251   C     0.57387   0.14451   0.01816   0.00000  Uiso   1.00
C252   C     0.71782   0.14874   0.09043   0.00000  Uiso   1.00
C253   C     0.77258   0.19545   0.11766   0.00000  Uiso   1.00
H254   H     0.26625   0.20435   0.86326   0.00000  Uiso   1.00
H255   H     0.04899   0.18055   0.89302   0.00000  Uiso   1.00
H256   H     0.25020   0.18003   0.71652   0.00000  Uiso   1.00
H257   H     0.47545   0.26393   0.96801   0.00000  Uiso   1.00
H258   H     0.84613   0.13608   0.94519   0.00000  Uiso   1.00
H259   H     0.27043   0.13499   0.57303   0.00000  Uiso   1.00
H260   H     0.74541   0.31191   0.10336   0.00000  Uiso   1.00
H261   H     0.55924   0.06508   0.01124   0.00000  Uiso   1.00
H262   H     0.35806   0.03363   0.04913   0.00000  Uiso   1.00
H263   H     0.55927   0.03312   0.87262   0.00000  Uiso   1.00
H264   H     0.78451   0.11701   0.12412   0.00000  Uiso   1.00
H265   H     0.09698   0.01683   0.07189   0.00000  Uiso   1.00
H266   H     0.52128   0.01575   0.69973   0.00000  Uiso   1.00
H267   H     0.99625   0.19267   0.23006   0.00000  Uiso   1.00
O268   O     0.83391   0.05827   0.03077   0.00000  Uiso   1.00
O269   O     0.39059   0.05686   0.54252   0.00000  Uiso   1.00
O270   O     0.01374   0.28897   0.23829   0.00000  Uiso   1.00
N271   N     0.93279   0.11233   0.96983   0.00000  Uiso   1.00
N272   N     0.32946   0.11132   0.62188   0.00000  Uiso   1.00
N273   N     0.77354   0.27672   0.11767   0.00000  Uiso   1.00
N274   N     0.06777   0.04817   0.03800   0.00000  Uiso   1.00
N275   N     0.46444   0.04716   0.69006   0.00000  Uiso   1.00
N276   N     0.90852   0.21256   0.18585   0.00000  Uiso   1.00
C277   C     0.92426   0.16855   0.40273   0.00000  Uiso   1.00
C278   C     0.99679   0.13440   0.36572   0.00000  Uiso   1.00
C279   C     0.13672   0.14100   0.37128   0.00000  Uiso   1.00
C280   C     0.18299   0.10563   0.33326   0.00000  Uiso   1.00
C281   C     0.30942   0.05875   0.28223   0.00000  Uiso   1.00
C282   C     0.89158   0.13775   0.46355   0.00000  Uiso   1.00
C283   C     0.94304   0.14718   0.55137   0.00000  Uiso   1.00
C284   C     0.90073   0.11463   0.59570   0.00000  Uiso   1.00
C285   C     0.86372   0.07298   0.69655   0.00000  Uiso   1.00
C286   C     0.77020   0.18239   0.32587   0.00000  Uiso   1.00
C287   C     0.71958   0.22936   0.29793   0.00000  Uiso   1.00
C288   C     0.57506   0.23439   0.22636   0.00000  Uiso   1.00
C289   C     0.34960   0.26205   0.11344   0.00000  Uiso   1.00
C290   C     0.75759   0.09398   0.32532   0.00000  Uiso   1.00
C291   C     0.90626   0.09389   0.32368   0.00000  Uiso   1.00
C292   C     0.95233   0.05850   0.28564   0.00000  Uiso   1.00
C293   C     0.09230   0.06505   0.29114   0.00000  Uiso   1.00
C294   C     0.80106   0.09725   0.42152   0.00000  Uiso   1.00
C295   C     0.75865   0.06468   0.46573   0.00000  Uiso   1.00
C296   C     0.81004   0.07405   0.55359   0.00000  Uiso   1.00
C297   C     0.67967   0.14189   0.28383   0.00000  Uiso   1.00
C298   C     0.53520   0.14685   0.21229   0.00000  Uiso   1.00
C299   C     0.48437   0.19381   0.18425   0.00000  Uiso   1.00
H300   H     0.99473   0.20008   0.43546   0.00000  Uiso   1.00
H301   H     0.20675   0.17235   0.40382   0.00000  Uiso   1.00
H302   H     0.01308   0.17853   0.58388   0.00000  Uiso   1.00
H303   H     0.78966   0.26069   0.33048   0.00000  Uiso   1.00
H304   H     0.40191   0.12374   0.35024   0.00000  Uiso   1.00
H305   H     0.99351   0.13677   0.72989   0.00000  Uiso   1.00
H306   H     0.52239   0.31003   0.19555   0.00000  Uiso   1.00
H307   H     0.68711   0.06244   0.29259   0.00000  Uiso   1.00
H308   H     0.88225   0.02716   0.25311   0.00000  Uiso   1.00
H309   H     0.68859   0.03334   0.43317   0.00000  Uiso   1.00
H310   H     0.46517   0.11550   0.17978   0.00000  Uiso   1.00
H311   H     0.13854   0.00589   0.22791   0.00000  Uiso   1.00
H312   H     0.73013   0.01893   0.60757   0.00000  Uiso   1.00
H313   H     0.25902   0.19218   0.07323   0.00000  Uiso   1.00
O314   O     0.40417   0.04408   0.26571   0.00000  Uiso   1.00
O315   O     0.86834   0.06119   0.76379   0.00000  Uiso   1.00
O316   O     0.25025   0.28849   0.06276   0.00000  Uiso   1.00
N317   N     0.31313   0.10085   0.32685   0.00000  Uiso   1.00
N318   N     0.93132   0.11303   0.68181   0.00000  Uiso   1.00
N319   N     0.49085   0.27501   0.18226   0.00000  Uiso   1.00
N320   N     0.17141   0.03744   0.26103   0.00000  Uiso   1.00
N321   N     0.78960   0.04962   0.61599   0.00000  Uiso   1.00
N322   N     0.34913   0.21160   0.11644   0.00000  Uiso   1.00
C323   C     0.66663   0.67244   0.60284   0.00000  Uiso   1.00
C324   C     0.74403   0.64020   0.56614   0.00000  Uiso   1.00
C325   C     0.88431   0.64883   0.57327   0.00000  Uiso   1.00
C326   C     0.93539   0.61498   0.53527   0.00000  Uiso   1.00
C327   C     0.06872   0.57114   0.48495   0.00000  Uiso   1.00
C328   C     0.63473   0.63991   0.66204   0.00000  Uiso   1.00
C329   C     0.68309   0.64831   0.74980   0.00000  Uiso   1.00
C330   C     0.64213   0.61422   0.79253   0.00000  Uiso   1.00
C331   C     0.60568   0.56996   0.89108   0.00000  Uiso   1.00
C332   C     0.51236   0.68550   0.52539   0.00000  Uiso   1.00
C333   C     0.45780   0.73222   0.49827   0.00000  Uiso   1.00
C334   C     0.31380   0.73651   0.42596   0.00000  Uiso   1.00
C335   C     0.08734   0.76302   0.31235   0.00000  Uiso   1.00
C336   C     0.50789   0.59699   0.52266   0.00000  Uiso   1.00
C337   C     0.65781   0.59921   0.52259   0.00000  Uiso   1.00
C338   C     0.70868   0.56535   0.48457   0.00000  Uiso   1.00
C339   C     0.84901   0.57392   0.49164   0.00000  Uiso   1.00
C340   C     0.54851   0.59893   0.61850   0.00000  Uiso   1.00
C341   C     0.50746   0.56483   0.66110   0.00000  Uiso   1.00
C342   C     0.55576   0.57316   0.74890   0.00000  Uiso   1.00
C343   C     0.42613   0.64451   0.48184   0.00000  Uiso   1.00
C344   C     0.28218   0.64874   0.40957   0.00000  Uiso   1.00
C345   C     0.22742   0.69545   0.38234   0.00000  Uiso   1.00
H346   H     0.73375   0.70435   0.63674   0.00000  Uiso   1.00
H347   H     0.95101   0.68055   0.60698   0.00000  Uiso   1.00
H348   H     0.74980   0.68003   0.78348   0.00000  Uiso   1.00
H349   H     0.52455   0.76393   0.53199   0.00000  Uiso   1.00
H350   H     0.15387   0.63608   0.55481   0.00000  Uiso   1.00
H351   H     0.72957   0.63499   0.92697   0.00000  Uiso   1.00
H352   H     0.25459   0.81191   0.39664   0.00000  Uiso   1.00
H353   H     0.44076   0.56508   0.48876   0.00000  Uiso   1.00
H354   H     0.64194   0.53363   0.45087   0.00000  Uiso   1.00
H355   H     0.44073   0.53312   0.62738   0.00000  Uiso   1.00
H356   H     0.21549   0.61701   0.37588   0.00000  Uiso   1.00
H357   H     0.90302   0.51683   0.42811   0.00000  Uiso   1.00
H358   H     0.47872   0.51575   0.80027   0.00000  Uiso   1.00
H359   H     0.00375   0.69267   0.26994   0.00000  Uiso   1.00
O360   O     0.16609   0.55827   0.46923   0.00000  Uiso   1.00
O361   O     0.60941   0.55686   0.95748   0.00000  Uiso   1.00
O362   O     0.98626   0.78897   0.26171   0.00000  Uiso   1.00
N363   N     0.06721   0.61233   0.53017   0.00000  Uiso   1.00
N364   N     0.67054   0.61132   0.87812   0.00000  Uiso   1.00
N365   N     0.22646   0.77672   0.38233   0.00000  Uiso   1.00
N366   N     0.93223   0.54817   0.46200   0.00000  Uiso   1.00
N367   N     0.53556   0.54716   0.80994   0.00000  Uiso   1.00
N368   N     0.09148   0.71256   0.31415   0.00000  Uiso   1.00
