data_job_06973
_audit_creation_date              2018-12-19
_audit_creation_method            'Materials Studio'
_symmetry_space_group_name_H-M    'P1'
_symmetry_Int_Tables_number       1
_symmetry_cell_setting            triclinic
loop_
_symmetry_equiv_pos_as_xyz
  x,y,z
_cell_length_a                    23.1188
_cell_length_b                    21.6469
_cell_length_c                    21.6954
_cell_angle_alpha                 110.1540
_cell_angle_beta                  106.5580
_cell_angle_gamma                 108.3810
loop_
_atom_site_label
_atom_site_type_symbol
_atom_site_fract_x
_atom_site_fract_y
_atom_site_fract_z
_atom_site_U_iso_or_equiv
_atom_site_adp_type
_atom_site_occupancy
C1     C     0.51972   0.55865   0.87855   0.00000  Uiso   1.00
C2     C     0.49764   0.51683   0.79656   0.00000  Uiso   1.00
C3     C     0.52726   0.54317   0.75757   0.00000  Uiso   1.00
C4     C     0.49963   0.49644   0.68294   0.00000  Uiso   1.00
C5     C     0.47374   0.44225   0.56085   0.00000  Uiso   1.00
C6     C     0.45691   0.56118   0.88642   0.00000  Uiso   1.00
C7     C     0.45229   0.62481   0.92299   0.00000  Uiso   1.00
C8     C     0.39038   0.61541   0.92400   0.00000  Uiso   1.00
C9     C     0.30127   0.63006   0.94146   0.00000  Uiso   1.00
C10    C     0.53488   0.50897   0.90934   0.00000  Uiso   1.00
C11    C     0.59581   0.52871   0.96520   0.00000  Uiso   1.00
C12    C     0.59954   0.47535   0.98553   0.00000  Uiso   1.00
C13    C     0.63149   0.40894   0.03858   0.00000  Uiso   1.00
C14    C     0.41799   0.42882   0.81534   0.00000  Uiso   1.00
C15    C     0.44239   0.44631   0.76223   0.00000  Uiso   1.00
C16    C     0.41471   0.39953   0.68763   0.00000  Uiso   1.00
C17    C     0.44429   0.42579   0.64854   0.00000  Uiso   1.00
C18    C     0.40166   0.49066   0.85209   0.00000  Uiso   1.00
C19    C     0.33974   0.48116   0.85305   0.00000  Uiso   1.00
C20    C     0.33503   0.54476   0.88960   0.00000  Uiso   1.00
C21    C     0.47963   0.43845   0.87501   0.00000  Uiso   1.00
C22    C     0.48326   0.38506   0.89526   0.00000  Uiso   1.00
C23    C     0.54419   0.40470   0.95113   0.00000  Uiso   1.00
H24    H     0.56273   0.61355   0.90528   0.00000  Uiso   1.00
H25    H     0.57001   0.59775   0.78416   0.00000  Uiso   1.00
H26    H     0.49506   0.67937   0.94956   0.00000  Uiso   1.00
H27    H     0.63856   0.58328   0.99176   0.00000  Uiso   1.00
H28    H     0.55371   0.54915   0.63473   0.00000  Uiso   1.00
H29    H     0.39566   0.72124   0.98350   0.00000  Uiso   1.00
H30    H     0.69826   0.51862   0.07249   0.00000  Uiso   1.00
H31    H     0.37497   0.37391   0.78861   0.00000  Uiso   1.00
H32    H     0.37196   0.34496   0.66108   0.00000  Uiso   1.00
H33    H     0.29700   0.42658   0.82648   0.00000  Uiso   1.00
H34    H     0.44050   0.33049   0.86868   0.00000  Uiso   1.00
H35    H     0.39295   0.34397   0.53483   0.00000  Uiso   1.00
H36    H     0.23491   0.51607   0.88360   0.00000  Uiso   1.00
H37    H     0.53751   0.31344   0.97259   0.00000  Uiso   1.00
O38    O     0.47472   0.43184   0.50299   0.00000  Uiso   1.00
O39    O     0.26738   0.65763   0.96057   0.00000  Uiso   1.00
O40    O     0.66438   0.39179   0.07733   0.00000  Uiso   1.00
N41    N     0.51630   0.50482   0.62872   0.00000  Uiso   1.00
N42    N     0.36853   0.66573   0.95479   0.00000  Uiso   1.00
N43    N     0.65143   0.47630   0.03801   0.00000  Uiso   1.00
N44    N     0.42980   0.39442   0.57497   0.00000  Uiso   1.00
N45    N     0.28203   0.55533   0.90104   0.00000  Uiso   1.00
N46    N     0.56493   0.36589   0.98425   0.00000  Uiso   1.00
C47    C     0.97079   0.54369   0.64309   0.00000  Uiso   1.00
C48    C     0.93548   0.58502   0.67586   0.00000  Uiso   1.00
C49    C     0.95359   0.62373   0.74990   0.00000  Uiso   1.00
C50    C     0.91490   0.65778   0.76878   0.00000  Uiso   1.00
C51    C     0.86840   0.72263   0.82777   0.00000  Uiso   1.00
C52    C     0.91585   0.46414   0.58993   0.00000  Uiso   1.00
C53    C     0.91746   0.40122   0.59173   0.00000  Uiso   1.00
C54    C     0.86225   0.33351   0.53827   0.00000  Uiso   1.00
C55    C     0.78529   0.21069   0.46383   0.00000  Uiso   1.00
C56    C     0.99187   0.57615   0.59620   0.00000  Uiso   1.00
C57    C     0.05739   0.60739   0.60325   0.00000  Uiso   1.00
C58    C     0.06617   0.63397   0.55505   0.00000  Uiso   1.00
C59    C     0.10724   0.68505   0.49035   0.00000  Uiso   1.00
C60    C     0.86987   0.53532   0.54493   0.00000  Uiso   1.00
C61    C     0.88066   0.58048   0.62254   0.00000  Uiso   1.00
C62    C     0.84194   0.61448   0.64131   0.00000  Uiso   1.00
C63    C     0.85999   0.65323   0.71537   0.00000  Uiso   1.00
C64    C     0.86103   0.45960   0.53662   0.00000  Uiso   1.00
C65    C     0.80581   0.39197   0.48314   0.00000  Uiso   1.00
C66    C     0.80733   0.32896   0.48486   0.00000  Uiso   1.00
C67    C     0.93705   0.57161   0.54289   0.00000  Uiso   1.00
C68    C     0.94573   0.59814   0.49466   0.00000  Uiso   1.00
C69    C     0.01126   0.62942   0.50164   0.00000  Uiso   1.00
H70    H     0.01346   0.54722   0.68459   0.00000  Uiso   1.00
H71    H     0.99602   0.62723   0.79115   0.00000  Uiso   1.00
H72    H     0.95989   0.40475   0.63299   0.00000  Uiso   1.00
H73    H     0.09980   0.61089   0.64452   0.00000  Uiso   1.00
H74    H     0.95249   0.71391   0.88577   0.00000  Uiso   1.00
H75    H     0.87633   0.24480   0.55228   0.00000  Uiso   1.00
H76    H     0.17135   0.67949   0.57658   0.00000  Uiso   1.00
H77    H     0.82719   0.53179   0.50342   0.00000  Uiso   1.00
H78    H     0.79952   0.61096   0.60004   0.00000  Uiso   1.00
H79    H     0.76340   0.38848   0.44189   0.00000  Uiso   1.00
H80    H     0.90330   0.59462   0.45341   0.00000  Uiso   1.00
H81    H     0.79300   0.70070   0.73066   0.00000  Uiso   1.00
H82    H     0.71684   0.23159   0.39717   0.00000  Uiso   1.00
H83    H     0.01186   0.66628   0.42147   0.00000  Uiso   1.00
O84    O     0.85789   0.75964   0.87504   0.00000  Uiso   1.00
O85    O     0.75798   0.14419   0.43751   0.00000  Uiso   1.00
O86    O     0.14504   0.71450   0.46939   0.00000  Uiso   1.00
N87    N     0.91876   0.69995   0.83601   0.00000  Uiso   1.00
N88    N     0.84755   0.26136   0.52422   0.00000  Uiso   1.00
N89    N     0.12336   0.66774   0.54693   0.00000  Uiso   1.00
N90    N     0.83294   0.69284   0.75254   0.00000  Uiso   1.00
N91    N     0.76173   0.25426   0.44076   0.00000  Uiso   1.00
N92    N     0.03754   0.66063   0.46346   0.00000  Uiso   1.00
C93    C     0.55318   0.87696   0.50736   0.00000  Uiso   1.00
C94    C     0.54779   0.81649   0.52952   0.00000  Uiso   1.00
C95    C     0.59759   0.82161   0.58770   0.00000  Uiso   1.00
C96    C     0.58288   0.76020   0.59893   0.00000  Uiso   1.00
C97    C     0.58401   0.67605   0.64022   0.00000  Uiso   1.00
C98    C     0.54043   0.84226   0.42750   0.00000  Uiso   1.00
C99    C     0.58405   0.86907   0.39991   0.00000  Uiso   1.00
C100   C     0.56313   0.82936   0.32526   0.00000  Uiso   1.00
C101   C     0.55282   0.78526   0.20815   0.00000  Uiso   1.00
C102   C     0.49271   0.89115   0.50782   0.00000  Uiso   1.00
C103   C     0.49619   0.95906   0.54774   0.00000  Uiso   1.00
C104   C     0.43509   0.96051   0.54070   0.00000  Uiso   1.00
C105   C     0.35068   0.99231   0.54831   0.00000  Uiso   1.00
C106   C     0.43848   0.75879   0.42385   0.00000  Uiso   1.00
C107   C     0.48549   0.75230   0.48415   0.00000  Uiso   1.00
C108   C     0.47070   0.69087   0.49531   0.00000  Uiso   1.00
C109   C     0.52047   0.69590   0.55350   0.00000  Uiso   1.00
C110   C     0.47814   0.77808   0.38214   0.00000  Uiso   1.00
C111   C     0.45715   0.73832   0.30751   0.00000  Uiso   1.00
C112   C     0.50072   0.76506   0.27982   0.00000  Uiso   1.00
C113   C     0.43041   0.82696   0.46246   0.00000  Uiso   1.00
C114   C     0.36930   0.82831   0.45535   0.00000  Uiso   1.00
C115   C     0.37268   0.89621   0.49526   0.00000  Uiso   1.00
H116   H     0.60168   0.92693   0.54266   0.00000  Uiso   1.00
H117   H     0.64580   0.87129   0.62278   0.00000  Uiso   1.00
H118   H     0.63225   0.91875   0.43502   0.00000  Uiso   1.00
H119   H     0.54441   0.00872   0.58284   0.00000  Uiso   1.00
H120   H     0.66725   0.78129   0.69159   0.00000  Uiso   1.00
H121   H     0.63868   0.88136   0.29568   0.00000  Uiso   1.00
H122   H     0.45344   0.07109   0.60738   0.00000  Uiso   1.00
H123   H     0.38998   0.70881   0.38853   0.00000  Uiso   1.00
H124   H     0.42248   0.64120   0.46020   0.00000  Uiso   1.00
H125   H     0.40894   0.68866   0.27243   0.00000  Uiso   1.00
H126   H     0.32110   0.77863   0.42025   0.00000  Uiso   1.00
H127   H     0.48600   0.59454   0.55963   0.00000  Uiso   1.00
H128   H     0.45743   0.69461   0.16371   0.00000  Uiso   1.00
H129   H     0.27219   0.88434   0.47541   0.00000  Uiso   1.00
O130   O     0.60184   0.64736   0.67552   0.00000  Uiso   1.00
O131   O     0.56434   0.77866   0.15609   0.00000  Uiso   1.00
O132   O     0.32132   0.02758   0.56504   0.00000  Uiso   1.00
N133   N     0.62013   0.74662   0.65071   0.00000  Uiso   1.00
N134   N     0.59342   0.84018   0.28055   0.00000  Uiso   1.00
N135   N     0.42024   0.01756   0.57195   0.00000  Uiso   1.00
N136   N     0.52260   0.64613   0.57970   0.00000  Uiso   1.00
N137   N     0.49589   0.73969   0.20954   0.00000  Uiso   1.00
N138   N     0.32271   0.91707   0.50094   0.00000  Uiso   1.00
C139   C     0.13982   0.44372   0.09205   0.00000  Uiso   1.00
C140   C     0.16390   0.38471   0.08470   0.00000  Uiso   1.00
C141   C     0.22620   0.39571   0.13061   0.00000  Uiso   1.00
C142   C     0.23858   0.33467   0.11467   0.00000  Uiso   1.00
C143   C     0.28329   0.25361   0.11238   0.00000  Uiso   1.00
C144   C     0.07298   0.41405   0.09691   0.00000  Uiso   1.00
C145   C     0.05884   0.44974   0.15308   0.00000  Uiso   1.00
C146   C     0.99467   0.41340   0.14741   0.00000  Uiso   1.00
C147   C     0.89821   0.37793   0.16403   0.00000  Uiso   1.00
C148   C     0.12173   0.44468   0.01919   0.00000  Uiso   1.00
C149   C     0.14856   0.50612   0.01001   0.00000  Uiso   1.00
C150   C     0.12543   0.49557   0.93890   0.00000  Uiso   1.00
C151   C     0.10466   0.50764   0.83486   0.00000  Uiso   1.00
C152   C     0.05101   0.31574   0.98211   0.00000  Uiso   1.00
C153   C     0.11566   0.31519   0.02499   0.00000  Uiso   1.00
C154   C     0.12794   0.25412   0.00898   0.00000  Uiso   1.00
C155   C     0.19026   0.26503   0.05485   0.00000  Uiso   1.00
C156   C     0.02474   0.34454   0.03720   0.00000  Uiso   1.00
C157   C     0.96058   0.30815   0.03144   0.00000  Uiso   1.00
C158   C     0.94635   0.34376   0.08758   0.00000  Uiso   1.00
C159   C     0.07349   0.37516   0.95947   0.00000  Uiso   1.00
C160   C     0.05031   0.36452   0.88837   0.00000  Uiso   1.00
C161   C     0.07711   0.42593   0.87908   0.00000  Uiso   1.00
H162   H     0.17737   0.49783   0.13854   0.00000  Uiso   1.00
H163   H     0.26351   0.44952   0.17682   0.00000  Uiso   1.00
H164   H     0.09617   0.50354   0.19928   0.00000  Uiso   1.00
H165   H     0.18589   0.55990   0.05623   0.00000  Uiso   1.00
H166   H     0.33774   0.36528   0.19295   0.00000  Uiso   1.00
H167   H     0.98488   0.47920   0.24028   0.00000  Uiso   1.00
H168   H     0.17406   0.59806   0.93864   0.00000  Uiso   1.00
H169   H     0.01345   0.26161   0.93561   0.00000  Uiso   1.00
H170   H     0.09061   0.20033   0.96276   0.00000  Uiso   1.00
H171   H     0.92326   0.25436   0.98522   0.00000  Uiso   1.00
H172   H     0.01298   0.31072   0.84217   0.00000  Uiso   1.00
H173   H     0.19740   0.16304   0.01921   0.00000  Uiso   1.00
H174   H     0.84454   0.27696   0.06655   0.00000  Uiso   1.00
H175   H     0.03372   0.39581   0.76490   0.00000  Uiso   1.00
O176   O     0.32127   0.22810   0.12761   0.00000  Uiso   1.00
O177   O     0.85833   0.37757   0.18971   0.00000  Uiso   1.00
O178   O     0.10654   0.53350   0.79396   0.00000  Uiso   1.00
N179   N     0.29413   0.32610   0.14832   0.00000  Uiso   1.00
N180   N     0.96423   0.43260   0.19259   0.00000  Uiso   1.00
N181   N     0.14109   0.54373   0.91058   0.00000  Uiso   1.00
N182   N     0.21861   0.21727   0.05484   0.00000  Uiso   1.00
N183   N     0.88871   0.32377   0.09910   0.00000  Uiso   1.00
N184   N     0.06557   0.43490   0.81709   0.00000  Uiso   1.00
C185   C     0.36441   0.01528   0.94479   0.00000  Uiso   1.00
C186   C     0.32708   0.01133   0.99212   0.00000  Uiso   1.00
C187   C     0.34279   0.06940   0.05781   0.00000  Uiso   1.00
C188   C     0.30253   0.05457   0.09280   0.00000  Uiso   1.00
C189   C     0.25277   0.05915   0.17079   0.00000  Uiso   1.00
C190   C     0.31074   0.99051   0.86932   0.00000  Uiso   1.00
C191   C     0.31271   0.03107   0.83176   0.00000  Uiso   1.00
C192   C     0.25869   0.99870   0.76336   0.00000  Uiso   1.00
C193   C     0.18358   0.97094   0.65068   0.00000  Uiso   1.00
C194   C     0.38726   0.95519   0.93545   0.00000  Uiso   1.00
C195   C     0.45357   0.96605   0.95347   0.00000  Uiso   1.00
C196   C     0.46398   0.90394   0.94074   0.00000  Uiso   1.00
C197   C     0.50769   0.82134   0.93073   0.00000  Uiso   1.00
C198   C     0.26498   0.88567   0.89010   0.00000  Uiso   1.00
C199   C     0.27308   0.94093   0.96241   0.00000  Uiso   1.00
C200   C     0.23279   0.92600   0.99731   0.00000  Uiso   1.00
C201   C     0.24843   0.98404   0.06305   0.00000  Uiso   1.00
C202   C     0.25673   0.92011   0.83961   0.00000  Uiso   1.00
C203   C     0.20271   0.88767   0.77126   0.00000  Uiso   1.00
C204   C     0.20459   0.92818   0.73361   0.00000  Uiso   1.00
C205   C     0.33326   0.88479   0.90575   0.00000  Uiso   1.00
C206   C     0.34357   0.82265   0.89298   0.00000  Uiso   1.00
C207   C     0.40988   0.83342   0.91098   0.00000  Uiso   1.00
H208   H     0.40645   0.07009   0.96790   0.00000  Uiso   1.00
H209   H     0.38458   0.12388   0.08077   0.00000  Uiso   1.00
H210   H     0.35451   0.08555   0.85475   0.00000  Uiso   1.00
H211   H     0.49535   0.02054   0.97645   0.00000  Uiso   1.00
H212   H     0.33651   0.15247   0.19280   0.00000  Uiso   1.00
H213   H     0.27311   0.07164   0.71621   0.00000  Uiso   1.00
H214   H     0.57010   0.93455   0.97283   0.00000  Uiso   1.00
H215   H     0.22294   0.83086   0.86698   0.00000  Uiso   1.00
H216   H     0.19100   0.87152   0.97431   0.00000  Uiso   1.00
H217   H     0.16093   0.83319   0.74829   0.00000  Uiso   1.00
H218   H     0.30177   0.76818   0.86999   0.00000  Uiso   1.00
H219   H     0.17939   0.94765   0.10639   0.00000  Uiso   1.00
H220   H     0.11599   0.86682   0.62980   0.00000  Uiso   1.00
H221   H     0.41298   0.72973   0.88643   0.00000  Uiso   1.00
O222   O     0.24024   0.08113   0.22201   0.00000  Uiso   1.00
O223   O     0.15707   0.97508   0.59674   0.00000  Uiso   1.00
O224   O     0.54671   0.79523   0.93343   0.00000  Uiso   1.00
N225   N     0.30392   0.09868   0.15774   0.00000  Uiso   1.00
N226   N     0.24464   0.02312   0.71216   0.00000  Uiso   1.00
N227   N     0.52230   0.89495   0.95207   0.00000  Uiso   1.00
N228   N     0.21938   0.98847   0.11124   0.00000  Uiso   1.00
N229   N     0.16010   0.91290   0.66566   0.00000  Uiso   1.00
N230   N     0.43776   0.78473   0.90557   0.00000  Uiso   1.00
C231   C     0.10322   0.15376   0.48497   0.00000  Uiso   1.00
C232   C     0.07892   0.15867   0.41448   0.00000  Uiso   1.00
C233   C     0.11356   0.21482   0.40206   0.00000  Uiso   1.00
C234   C     0.08279   0.20919   0.33393   0.00000  Uiso   1.00
C235   C     0.05469   0.22586   0.23264   0.00000  Uiso   1.00
C236   C     0.10401   0.07922   0.46306   0.00000  Uiso   1.00
C237   C     0.15974   0.06856   0.49151   0.00000  Uiso   1.00
C238   C     0.15009   0.99605   0.46428   0.00000  Uiso   1.00
C239   C     0.16092   0.88937   0.43846   0.00000  Uiso   1.00
C240   C     0.04706   0.14812   0.50957   0.00000  Uiso   1.00
C241   C     0.05491   0.19540   0.57713   0.00000  Uiso   1.00
C242   C     0.99731   0.18089   0.58907   0.00000  Uiso   1.00
C243   C     0.91973   0.18120   0.63546   0.00000  Uiso   1.00
C244   C     0.98698   0.04392   0.38606   0.00000  Uiso   1.00
C245   C     0.01579   0.09900   0.36075   0.00000  Uiso   1.00
C246   C     0.98496   0.09329   0.29263   0.00000  Uiso   1.00
C247   C     0.01954   0.14942   0.28011   0.00000  Uiso   1.00
C248   C     0.04088   0.01955   0.40934   0.00000  Uiso   1.00
C249   C     0.03114   0.94704   0.38207   0.00000  Uiso   1.00
C250   C     0.08684   0.93628   0.41046   0.00000  Uiso   1.00
C251   C     0.98393   0.08846   0.45585   0.00000  Uiso   1.00
C252   C     0.92631   0.07387   0.46769   0.00000  Uiso   1.00
C253   C     0.93406   0.12112   0.53525   0.00000  Uiso   1.00
H254   H     0.15237   0.20021   0.52680   0.00000  Uiso   1.00
H255   H     0.16242   0.26097   0.44365   0.00000  Uiso   1.00
H256   H     0.20859   0.11474   0.53308   0.00000  Uiso   1.00
H257   H     0.10378   0.24156   0.61869   0.00000  Uiso   1.00
H258   H     0.14574   0.30202   0.32777   0.00000  Uiso   1.00
H259   H     0.24308   0.99368   0.51636   0.00000  Uiso   1.00
H260   H     0.02206   0.26110   0.69689   0.00000  Uiso   1.00
H261   H     0.93782   0.99747   0.34423   0.00000  Uiso   1.00
H262   H     0.93610   0.04711   0.25106   0.00000  Uiso   1.00
H263   H     0.98227   0.90088   0.34050   0.00000  Uiso   1.00
H264   H     0.87746   0.02770   0.42610   0.00000  Uiso   1.00
H265   H     0.96204   0.12844   0.17145   0.00000  Uiso   1.00
H266   H     0.05939   0.82010   0.36005   0.00000  Uiso   1.00
H267   H     0.83837   0.08752   0.54057   0.00000  Uiso   1.00
O268   O     0.05664   0.25153   0.19161   0.00000  Uiso   1.00
O269   O     0.18434   0.84701   0.43905   0.00000  Uiso   1.00
O270   O     0.89437   0.19786   0.67589   0.00000  Uiso   1.00
N271   N     0.10273   0.25436   0.30377   0.00000  Uiso   1.00
N272   N     0.19375   0.96609   0.48009   0.00000  Uiso   1.00
N273   N     0.98711   0.21609   0.64887   0.00000  Uiso   1.00
N274   N     0.00389   0.16096   0.21966   0.00000  Uiso   1.00
N275   N     0.09490   0.87269   0.39597   0.00000  Uiso   1.00
N276   N     0.88827   0.12269   0.56476   0.00000  Uiso   1.00
C277   C     0.53616   0.30920   0.16735   0.00000  Uiso   1.00
C278   C     0.51357   0.30502   0.22595   0.00000  Uiso   1.00
C279   C     0.49371   0.24405   0.23747   0.00000  Uiso   1.00
C280   C     0.47487   0.25131   0.29390   0.00000  Uiso   1.00
C281   C     0.43968   0.23481   0.37833   0.00000  Uiso   1.00
C282   C     0.60668   0.37538   0.20782   0.00000  Uiso   1.00
C283   C     0.66510   0.37355   0.20408   0.00000  Uiso   1.00
C284   C     0.72463   0.44004   0.24524   0.00000  Uiso   1.00
C285   C     0.83398   0.53278   0.30148   0.00000  Uiso   1.00
C286   C     0.48951   0.33035   0.12291   0.00000  Uiso   1.00
C287   C     0.44942   0.29067   0.04777   0.00000  Uiso   1.00
C288   C     0.41031   0.31926   0.01743   0.00000  Uiso   1.00
C289   C     0.33772   0.34207   0.94183   0.00000  Uiso   1.00
C290   C     0.53801   0.43052   0.24707   0.00000  Uiso   1.00
C291   C     0.51458   0.37092   0.26926   0.00000  Uiso   1.00
C292   C     0.49576   0.37828   0.32568   0.00000  Uiso   1.00
C293   C     0.47587   0.31732   0.33728   0.00000  Uiso   1.00
C294   C     0.60768   0.44127   0.25112   0.00000  Uiso   1.00
C295   C     0.66714   0.50778   0.29229   0.00000  Uiso   1.00
C296   C     0.72564   0.50606   0.28862   0.00000  Uiso   1.00
C297   C     0.49051   0.39624   0.16621   0.00000  Uiso   1.00
C298   C     0.45146   0.42490   0.13598   0.00000  Uiso   1.00
C299   C     0.41132   0.38527   0.06081   0.00000  Uiso   1.00
H300   H     0.53538   0.25790   0.13363   0.00000  Uiso   1.00
H301   H     0.49295   0.19306   0.20395   0.00000  Uiso   1.00
H302   H     0.66431   0.32255   0.17056   0.00000  Uiso   1.00
H303   H     0.44865   0.23968   0.01428   0.00000  Uiso   1.00
H304   H     0.44637   0.15025   0.30102   0.00000  Uiso   1.00
H305   H     0.80768   0.42329   0.23060   0.00000  Uiso   1.00
H306   H     0.35294   0.24854   0.90104   0.00000  Uiso   1.00
H307   H     0.53879   0.48183   0.28079   0.00000  Uiso   1.00
H308   H     0.49654   0.42928   0.35918   0.00000  Uiso   1.00
H309   H     0.66790   0.55877   0.32579   0.00000  Uiso   1.00
H310   H     0.45225   0.47589   0.16951   0.00000  Uiso   1.00
H311   H     0.44929   0.34197   0.42702   0.00000  Uiso   1.00
H312   H     0.81060   0.61501   0.35659   0.00000  Uiso   1.00
H313   H     0.35585   0.44026   0.02704   0.00000  Uiso   1.00
O314   O     0.42000   0.20751   0.41295   0.00000  Uiso   1.00
O315   O     0.89402   0.56572   0.32055   0.00000  Uiso   1.00
O316   O     0.29740   0.33645   0.88818   0.00000  Uiso   1.00
N317   N     0.45284   0.20258   0.31991   0.00000  Uiso   1.00
N318   N     0.79065   0.45785   0.25408   0.00000  Uiso   1.00
N319   N     0.36551   0.29448   0.94596   0.00000  Uiso   1.00
N320   N     0.45441   0.30574   0.38770   0.00000  Uiso   1.00
N321   N     0.79222   0.56101   0.32187   0.00000  Uiso   1.00
N322   N     0.36708   0.39765   0.01376   0.00000  Uiso   1.00
C323   C     0.24266   0.59380   0.54080   0.00000  Uiso   1.00
C324   C     0.27964   0.55868   0.50405   0.00000  Uiso   1.00
C325   C     0.26490   0.53156   0.43049   0.00000  Uiso   1.00
C326   C     0.30464   0.50156   0.40756   0.00000  Uiso   1.00
C327   C     0.35409   0.44748   0.34307   0.00000  Uiso   1.00
C328   C     0.29700   0.67033   0.60306   0.00000  Uiso   1.00
C329   C     0.29685   0.73708   0.61275   0.00000  Uiso   1.00
C330   C     0.35119   0.80105   0.67316   0.00000  Uiso   1.00
C331   C     0.42757   0.92030   0.76241   0.00000  Uiso   1.00
C332   C     0.21766   0.54894   0.57701   0.00000  Uiso   1.00
C333   C     0.15080   0.51363   0.56482   0.00000  Uiso   1.00
C334   C     0.13835   0.47542   0.60332   0.00000  Uiso   1.00
C335   C     0.09154   0.40619   0.65213   0.00000  Uiso   1.00
C336   C     0.33944   0.58875   0.63088   0.00000  Uiso   1.00
C337   C     0.33221   0.55594   0.55298   0.00000  Uiso   1.00
C338   C     0.37198   0.52596   0.53015   0.00000  Uiso   1.00
C339   C     0.35730   0.49880   0.45657   0.00000  Uiso   1.00
C340   C     0.34957   0.66758   0.65198   0.00000  Uiso   1.00
C341   C     0.40393   0.73148   0.71240   0.00000  Uiso   1.00
C342   C     0.40386   0.79830   0.72218   0.00000  Uiso   1.00
C343   C     0.27023   0.54619   0.62594   0.00000  Uiso   1.00
C344   C     0.25788   0.50803   0.66448   0.00000  Uiso   1.00
C345   C     0.19101   0.47267   0.65234   0.00000  Uiso   1.00
H346   H     0.20173   0.59595   0.50271   0.00000  Uiso   1.00
H347   H     0.22422   0.53371   0.39265   0.00000  Uiso   1.00
H348   H     0.25615   0.73918   0.57488   0.00000  Uiso   1.00
H349   H     0.11013   0.51577   0.52696   0.00000  Uiso   1.00
H350   H     0.27235   0.46351   0.29221   0.00000  Uiso   1.00
H351   H     0.33968   0.89677   0.67646   0.00000  Uiso   1.00
H352   H     0.03175   0.42567   0.57541   0.00000  Uiso   1.00
H353   H     0.38037   0.58661   0.66897   0.00000  Uiso   1.00
H354   H     0.41266   0.52385   0.56803   0.00000  Uiso   1.00
H355   H     0.44460   0.72933   0.75026   0.00000  Uiso   1.00
H356   H     0.29858   0.50592   0.70233   0.00000  Uiso   1.00
H357   H     0.42530   0.45551   0.43455   0.00000  Uiso   1.00
H358   H     0.49263   0.88877   0.81881   0.00000  Uiso   1.00
H359   H     0.18470   0.41767   0.71775   0.00000  Uiso   1.00
O360   O     0.36685   0.41842   0.29398   0.00000  Uiso   1.00
O361   O     0.45518   0.98683   0.79811   0.00000  Uiso   1.00
O362   O     0.05119   0.36875   0.66553   0.00000  Uiso   1.00
N363   N     0.30390   0.47023   0.33956   0.00000  Uiso   1.00
N364   N     0.36686   0.87530   0.69880   0.00000  Uiso   1.00
N365   N     0.07898   0.43487   0.60434   0.00000  Uiso   1.00
N366   N     0.38620   0.46592   0.41615   0.00000  Uiso   1.00
N367   N     0.44916   0.87100   0.77540   0.00000  Uiso   1.00
N368   N     0.16128   0.43057   0.68094   0.00000  Uiso   1.00
C369   C     0.55516   0.23964   0.57707   0.00000  Uiso   1.00
C370   C     0.59594   0.32235   0.60489   0.00000  Uiso   1.00
C371   C     0.58422   0.36035   0.56654   0.00000  Uiso   1.00
C372   C     0.62717   0.43590   0.60153   0.00000  Uiso   1.00
C373   C     0.68245   0.55884   0.63397   0.00000  Uiso   1.00
C374   C     0.52976   0.23328   0.63331   0.00000  Uiso   1.00
C375   C     0.46240   0.19637   0.61884   0.00000  Uiso   1.00
C376   C     0.44964   0.19693   0.67777   0.00000  Uiso   1.00
C377   C     0.40218   0.18152   0.75431   0.00000  Uiso   1.00
C378   C     0.60633   0.20894   0.58235   0.00000  Uiso   1.00
C379   C     0.60334   0.15155   0.52505   0.00000  Uiso   1.00
C380   C     0.65504   0.13161   0.54108   0.00000  Uiso   1.00
C381   C     0.72645   0.07841   0.53851   0.00000  Uiso   1.00
C382   C     0.65228   0.30625   0.70743   0.00000  Uiso   1.00
C383   C     0.64869   0.35853   0.67569   0.00000  Uiso   1.00
C384   C     0.69167   0.43404   0.71076   0.00000  Uiso   1.00
C385   C     0.68002   0.47215   0.67246   0.00000  Uiso   1.00
C386   C     0.58251   0.26945   0.70411   0.00000  Uiso   1.00
C387   C     0.56985   0.27006   0.76307   0.00000  Uiso   1.00
C388   C     0.50249   0.23317   0.74870   0.00000  Uiso   1.00
C389   C     0.65908   0.24512   0.65316   0.00000  Uiso   1.00
C390   C     0.71079   0.22525   0.66928   0.00000  Uiso   1.00
C391   C     0.70788   0.16785   0.61201   0.00000  Uiso   1.00
H392   H     0.51409   0.21147   0.52195   0.00000  Uiso   1.00
H393   H     0.54339   0.33233   0.51175   0.00000  Uiso   1.00
H394   H     0.42159   0.16837   0.56404   0.00000  Uiso   1.00
H395   H     0.56251   0.12357   0.47027   0.00000  Uiso   1.00
H396   H     0.59912   0.48229   0.53167   0.00000  Uiso   1.00
H397   H     0.34230   0.13654   0.64194   0.00000  Uiso   1.00
H398   H     0.63945   0.04206   0.44419   0.00000  Uiso   1.00
H399   H     0.69335   0.33442   0.76255   0.00000  Uiso   1.00
H400   H     0.73249   0.46203   0.76555   0.00000  Uiso   1.00
H401   H     0.61069   0.29806   0.81785   0.00000  Uiso   1.00
H402   H     0.75161   0.25326   0.72407   0.00000  Uiso   1.00
H403   H     0.75260   0.58755   0.73767   0.00000  Uiso   1.00
H404   H     0.49578   0.24181   0.84794   0.00000  Uiso   1.00
H405   H     0.79293   0.14733   0.65019   0.00000  Uiso   1.00
O406   O     0.69836   0.61665   0.63231   0.00000  Uiso   1.00
O407   O     0.36142   0.16304   0.77697   0.00000  Uiso   1.00
O408   O     0.75128   0.03909   0.51754   0.00000  Uiso   1.00
N409   N     0.62988   0.48955   0.57973   0.00000  Uiso   1.00
N410   N     0.38977   0.16631   0.68283   0.00000  Uiso   1.00
N411   N     0.66757   0.07796   0.49796   0.00000  Uiso   1.00
N412   N     0.71247   0.54619   0.69058   0.00000  Uiso   1.00
N413   N     0.47235   0.22295   0.79368   0.00000  Uiso   1.00
N414   N     0.75016   0.13460   0.60880   0.00000  Uiso   1.00
C415   C     0.09779   0.76249   0.08424   0.00000  Uiso   1.00
C416   C     0.07866   0.82561   0.10109   0.00000  Uiso   1.00
C417   C     0.02478   0.82694   0.05360   0.00000  Uiso   1.00
C418   C     0.01576   0.88979   0.07933   0.00000  Uiso   1.00
C419   C     0.97949   0.97879   0.09472   0.00000  Uiso   1.00
C420   C     0.17161   0.79662   0.09719   0.00000  Uiso   1.00
C421   C     0.19586   0.77357   0.04643   0.00000  Uiso   1.00
C422   C     0.26510   0.81201   0.06890   0.00000  Uiso   1.00
C423   C     0.37312   0.85597   0.07826   0.00000  Uiso   1.00
C424   C     0.09782   0.74010   0.14363   0.00000  Uiso   1.00
C425   C     0.06004   0.66952   0.13192   0.00000  Uiso   1.00
C426   C     0.06716   0.66037   0.19349   0.00000  Uiso   1.00
C427   C     0.06062   0.61658   0.27495   0.00000  Uiso   1.00
C428   C     0.17762   0.87174   0.21439   0.00000  Uiso   1.00
C429   C     0.12202   0.88495   0.17178   0.00000  Uiso   1.00
C430   C     0.11309   0.94781   0.19759   0.00000  Uiso   1.00
C431   C     0.05920   0.94923   0.15015   0.00000  Uiso   1.00
C432   C     0.21496   0.85596   0.16788   0.00000  Uiso   1.00
C433   C     0.28418   0.89444   0.19043   0.00000  Uiso   1.00
C434   C     0.30853   0.87145   0.13972   0.00000  Uiso   1.00
C435   C     0.14117   0.79944   0.21433   0.00000  Uiso   1.00
C436   C     0.14835   0.79040   0.27592   0.00000  Uiso   1.00
C437   C     0.11060   0.71982   0.26431   0.00000  Uiso   1.00
H438   H     0.06404   0.71629   0.02920   0.00000  Uiso   1.00
H439   H     0.99124   0.78101   0.99889   0.00000  Uiso   1.00
H440   H     0.16230   0.72764   0.99173   0.00000  Uiso   1.00
H441   H     0.02650   0.62361   0.07721   0.00000  Uiso   1.00
H442   H     0.92966   0.87894   0.99645   0.00000  Uiso   1.00
H443   H     0.29035   0.76640   0.98136   0.00000  Uiso   1.00
H444   H     0.00399   0.54703   0.16161   0.00000  Uiso   1.00
H445   H     0.21137   0.91794   0.26943   0.00000  Uiso   1.00
H446   H     0.14665   0.99372   0.25230   0.00000  Uiso   1.00
H447   H     0.31771   0.94035   0.24514   0.00000  Uiso   1.00
H448   H     0.18191   0.83633   0.33062   0.00000  Uiso   1.00
H449   H     0.05579   0.05159   0.20213   0.00000  Uiso   1.00
H450   H     0.41650   0.93904   0.18704   0.00000  Uiso   1.00
H451   H     0.13013   0.71968   0.36728   0.00000  Uiso   1.00
O452   O     0.94750   0.01150   0.08367   0.00000  Uiso   1.00
O453   O     0.42073   0.86383   0.06389   0.00000  Uiso   1.00
O454   O     0.04502   0.57603   0.30036   0.00000  Uiso   1.00
N455   N     0.96822   0.90917   0.04721   0.00000  Uiso   1.00
N456   N     0.30545   0.80395   0.03310   0.00000  Uiso   1.00
N457   N     0.03773   0.59886   0.20161   0.00000  Uiso   1.00
N458   N     0.03609   0.00207   0.15788   0.00000  Uiso   1.00
N459   N     0.37332   0.89685   0.14378   0.00000  Uiso   1.00
N460   N     0.10561   0.69176   0.31229   0.00000  Uiso   1.00
C461   C     0.70514   0.02450   0.01601   0.00000  Uiso   1.00
C462   C     0.77606   0.05612   0.02037   0.00000  Uiso   1.00
C463   C     0.79798   0.02045   0.97250   0.00000  Uiso   1.00
C464   C     0.86477   0.05874   0.98583   0.00000  Uiso   1.00
C465   C     0.96833   0.09697   0.98362   0.00000  Uiso   1.00
C466   C     0.71512   0.02730   0.08968   0.00000  Uiso   1.00
C467   C     0.68579   0.96740   0.10008   0.00000  Uiso   1.00
C468   C     0.70126   0.98144   0.17176   0.00000  Uiso   1.00
C469   C     0.71016   0.97493   0.27716   0.00000  Uiso   1.00
C470   C     0.67880   0.08013   0.01257   0.00000  Uiso   1.00
C471   C     0.61892   0.06465   0.95814   0.00000  Uiso   1.00
C472   C     0.60381   0.12316   0.96491   0.00000  Uiso   1.00
C473   C     0.55632   0.19868   0.95057   0.00000  Uiso   1.00
C474   C     0.78476   0.15592   0.12483   0.00000  Uiso   1.00
C475   C     0.81931   0.12750   0.07947   0.00000  Uiso   1.00
C476   C     0.88608   0.16586   0.09288   0.00000  Uiso   1.00
C477   C     0.90809   0.13025   0.04504   0.00000  Uiso   1.00
C478   C     0.75836   0.09868   0.14878   0.00000  Uiso   1.00
C479   C     0.77388   0.11281   0.22047   0.00000  Uiso   1.00
C480   C     0.74459   0.05295   0.23098   0.00000  Uiso   1.00
C481   C     0.72205   0.15152   0.07167   0.00000  Uiso   1.00
C482   C     0.70702   0.21006   0.07853   0.00000  Uiso   1.00
C483   C     0.64714   0.19467   0.02412   0.00000  Uiso   1.00
H484   H     0.67147   0.96892   0.97000   0.00000  Uiso   1.00
H485   H     0.76450   0.96521   0.92677   0.00000  Uiso   1.00
H486   H     0.65232   0.91217   0.05433   0.00000  Uiso   1.00
H487   H     0.58547   0.00940   0.91241   0.00000  Uiso   1.00
H488   H     0.88672   0.99256   0.90491   0.00000  Uiso   1.00
H489   H     0.65016   0.88073   0.17389   0.00000  Uiso   1.00
H490   H     0.50919   0.08577   0.87462   0.00000  Uiso   1.00
H491   H     0.81843   0.21150   0.17085   0.00000  Uiso   1.00
H492   H     0.91953   0.22110   0.13863   0.00000  Uiso   1.00
H493   H     0.80735   0.16806   0.26619   0.00000  Uiso   1.00
H494   H     0.74050   0.26529   0.12427   0.00000  Uiso   1.00
H495   H     0.01256   0.20025   0.07687   0.00000  Uiso   1.00
H496   H     0.77599   0.08842   0.34584   0.00000  Uiso   1.00
H497   H     0.63503   0.29346   0.04657   0.00000  Uiso   1.00
O498   O     0.01350   0.09833   0.96608   0.00000  Uiso   1.00
O499   O     0.70313   0.95162   0.31897   0.00000  Uiso   1.00
O500   O     0.51819   0.22062   0.92633   0.00000  Uiso   1.00
N501   N     0.90246   0.04013   0.94979   0.00000  Uiso   1.00
N502   N     0.68130   0.93557   0.20127   0.00000  Uiso   1.00
N503   N     0.54949   0.12726   0.92149   0.00000  Uiso   1.00
N504   N     0.97017   0.15188   0.04232   0.00000  Uiso   1.00
N505   N     0.74900   0.04733   0.29380   0.00000  Uiso   1.00
N506   N     0.61720   0.23901   0.01402   0.00000  Uiso   1.00
C507   C     0.98237   0.96244   0.68496   0.00000  Uiso   1.00
C508   C     0.00625   0.93982   0.74293   0.00000  Uiso   1.00
C509   C     0.00245   0.87081   0.72941   0.00000  Uiso   1.00
C510   C     0.02702   0.86114   0.78989   0.00000  Uiso   1.00
C511   C     0.05991   0.81729   0.86904   0.00000  Uiso   1.00
C512   C     0.93157   0.98912   0.69949   0.00000  Uiso   1.00
C513   C     0.86499   0.96157   0.64945   0.00000  Uiso   1.00
C514   C     0.82671   0.99341   0.67336   0.00000  Uiso   1.00
C515   C     0.74367   0.02614   0.68506   0.00000  Uiso   1.00
C516   C     0.04380   0.03069   0.70253   0.00000  Uiso   1.00
C517   C     0.07158   0.03810   0.65504   0.00000  Uiso   1.00
C518   C     0.12777   0.10494   0.68150   0.00000  Uiso   1.00
C519   C     0.21899   0.20220   0.69792   0.00000  Uiso   1.00
C520   C     0.03275   0.06797   0.81641   0.00000  Uiso   1.00
C521   C     0.03361   0.99714   0.81433   0.00000  Uiso   1.00
C522   C     0.05820   0.98757   0.87484   0.00000  Uiso   1.00
C523   C     0.05444   0.91856   0.86142   0.00000  Uiso   1.00
C524   C     0.95894   0.04644   0.77089   0.00000  Uiso   1.00
C525   C     0.92074   0.07834   0.79488   0.00000  Uiso   1.00
C526   C     0.85412   0.05084   0.74488   0.00000  Uiso   1.00
C527   C     0.07117   0.08801   0.77393   0.00000  Uiso   1.00
C528   C     0.12733   0.15486   0.80047   0.00000  Uiso   1.00
C529   C     0.15519   0.16237   0.75303   0.00000  Uiso   1.00
H530   H     0.96105   0.91781   0.62937   0.00000  Uiso   1.00
H531   H     0.98126   0.82646   0.67415   0.00000  Uiso   1.00
H532   H     0.84383   0.91722   0.59420   0.00000  Uiso   1.00
H533   H     0.05038   0.99373   0.59979   0.00000  Uiso   1.00
H534   H     0.01571   0.75046   0.75528   0.00000  Uiso   1.00
H535   H     0.72594   0.94184   0.58668   0.00000  Uiso   1.00
H536   H     0.16149   0.10317   0.59847   0.00000  Uiso   1.00
H537   H     0.05406   0.11260   0.87200   0.00000  Uiso   1.00
H538   H     0.07937   0.03194   0.93009   0.00000  Uiso   1.00
H539   H     0.94194   0.12270   0.85013   0.00000  Uiso   1.00
H540   H     0.14849   0.19920   0.85573   0.00000  Uiso   1.00
H541   H     0.09534   0.91723   0.96301   0.00000  Uiso   1.00
H542   H     0.80556   0.10861   0.79441   0.00000  Uiso   1.00
H543   H     0.24112   0.26995   0.80620   0.00000  Uiso   1.00
O544   O     0.07048   0.77726   0.89298   0.00000  Uiso   1.00
O545   O     0.69031   0.02835   0.67178   0.00000  Uiso   1.00
O546   O     0.26175   0.24002   0.68726   0.00000  Uiso   1.00
N547   N     0.03099   0.80078   0.79620   0.00000  Uiso   1.00
N548   N     0.76006   0.97970   0.63857   0.00000  Uiso   1.00
N549   N     0.16726   0.13054   0.64959   0.00000  Uiso   1.00
N550   N     0.07384   0.89052   0.90797   0.00000  Uiso   1.00
N551   N     0.80291   0.06944   0.75035   0.00000  Uiso   1.00
N552   N     0.21011   0.22028   0.76137   0.00000  Uiso   1.00
