data_job_06738
_audit_creation_date              2018-12-19
_audit_creation_method            'Materials Studio'
_symmetry_space_group_name_H-M    'P1'
_symmetry_Int_Tables_number       1
_symmetry_cell_setting            triclinic
loop_
_symmetry_equiv_pos_as_xyz
  x,y,z
_cell_length_a                    16.9606
_cell_length_b                    23.3061
_cell_length_c                    23.4123
_cell_angle_alpha                 85.0662
_cell_angle_beta                  97.6555
_cell_angle_gamma                 78.5911
loop_
_atom_site_label
_atom_site_type_symbol
_atom_site_fract_x
_atom_site_fract_y
_atom_site_fract_z
_atom_site_U_iso_or_equiv
_atom_site_adp_type
_atom_site_occupancy
C1     C     0.74855   0.68371   0.11579   0.00000  Uiso   1.00
C2     C     0.70457   0.73519   0.07078   0.00000  Uiso   1.00
C3     C     0.64635   0.78276   0.08049   0.00000  Uiso   1.00
C4     C     0.61330   0.82529   0.03368   0.00000  Uiso   1.00
C5     C     0.54127   0.90595   0.97208   0.00000  Uiso   1.00
C6     C     0.73256   0.62817   0.09057   0.00000  Uiso   1.00
C7     C     0.69788   0.58575   0.11694   0.00000  Uiso   1.00
C8     C     0.68840   0.53819   0.08679   0.00000  Uiso   1.00
C9     C     0.65988   0.45268   0.05594   0.00000  Uiso   1.00
C10    C     0.83924   0.68157   0.11720   0.00000  Uiso   1.00
C11    C     0.89427   0.68403   0.16596   0.00000  Uiso   1.00
C12    C     0.97461   0.68141   0.15824   0.00000  Uiso   1.00
C13    C     0.11173   0.67882   0.16873   0.00000  Uiso   1.00
C14    C     0.79339   0.67466   0.01538   0.00000  Uiso   1.00
C15    C     0.72893   0.73027   0.01624   0.00000  Uiso   1.00
C16    C     0.69595   0.77275   0.96940   0.00000  Uiso   1.00
C17    C     0.63769   0.82037   0.97904   0.00000  Uiso   1.00
C18    C     0.75691   0.62326   0.03603   0.00000  Uiso   1.00
C19    C     0.74748   0.57574   0.00584   0.00000  Uiso   1.00
C20    C     0.71280   0.53326   0.03215   0.00000  Uiso   1.00
C21    C     0.86360   0.67666   0.06266   0.00000  Uiso   1.00
C22    C     0.94387   0.67403   0.05486   0.00000  Uiso   1.00
C23    C     0.99901   0.67649   0.10360   0.00000  Uiso   1.00
H24    H     0.72959   0.68754   0.15825   0.00000  Uiso   1.00
H25    H     0.62752   0.78654   0.12271   0.00000  Uiso   1.00
H26    H     0.67905   0.58957   0.15915   0.00000  Uiso   1.00
H27    H     0.87540   0.68784   0.20816   0.00000  Uiso   1.00
H28    H     0.52506   0.89413   0.05924   0.00000  Uiso   1.00
H29    H     0.63375   0.47879   0.13608   0.00000  Uiso   1.00
H30    H     0.04780   0.68600   0.23944   0.00000  Uiso   1.00
H31    H     0.81235   0.67084   0.97291   0.00000  Uiso   1.00
H32    H     0.71481   0.76893   0.92720   0.00000  Uiso   1.00
H33    H     0.76634   0.57195   0.96364   0.00000  Uiso   1.00
H34    H     0.96269   0.67022   0.01265   0.00000  Uiso   1.00
H35    H     0.59591   0.87983   0.90056   0.00000  Uiso   1.00
H36    H     0.70460   0.46449   0.97740   0.00000  Uiso   1.00
H37    H     0.11864   0.67171   0.08076   0.00000  Uiso   1.00
O38    O     0.49481   0.95180   0.95317   0.00000  Uiso   1.00
O39    O     0.63742   0.40688   0.05399   0.00000  Uiso   1.00
O40    O     0.18064   0.67875   0.18959   0.00000  Uiso   1.00
N41    N     0.55513   0.87731   0.02817   0.00000  Uiso   1.00
N42    N     0.65674   0.48899   0.10001   0.00000  Uiso   1.00
N43    N     0.04384   0.68271   0.19665   0.00000  Uiso   1.00
N44    N     0.59326   0.86962   0.94279   0.00000  Uiso   1.00
N45    N     0.69486   0.48130   0.01462   0.00000  Uiso   1.00
N46    N     0.08197   0.67502   0.11126   0.00000  Uiso   1.00
C47    C     0.96142   0.66793   0.83236   0.00000  Uiso   1.00
C48    C     0.86967   0.68351   0.83198   0.00000  Uiso   1.00
C49    C     0.82322   0.64626   0.85336   0.00000  Uiso   1.00
C50    C     0.74023   0.66881   0.84896   0.00000  Uiso   1.00
C51    C     0.60312   0.68420   0.85212   0.00000  Uiso   1.00
C52    C     0.97408   0.67915   0.76943   0.00000  Uiso   1.00
C53    C     0.01542   0.63823   0.73824   0.00000  Uiso   1.00
C54    C     0.02032   0.65712   0.68118   0.00000  Uiso   1.00
C55    C     0.04536   0.66576   0.58726   0.00000  Uiso   1.00
C56    C     0.99610   0.71397   0.86425   0.00000  Uiso   1.00
C57    C     0.05598   0.70233   0.91277   0.00000  Uiso   1.00
C58    C     0.07944   0.75054   0.93554   0.00000  Uiso   1.00
C59    C     0.13866   0.81324   0.98884   0.00000  Uiso   1.00
C60    C     0.89662   0.77422   0.78651   0.00000  Uiso   1.00
C61    C     0.83448   0.74124   0.80707   0.00000  Uiso   1.00
C62    C     0.75153   0.76385   0.80264   0.00000  Uiso   1.00
C63    C     0.70497   0.72664   0.82401   0.00000  Uiso   1.00
C64    C     0.93889   0.73688   0.74453   0.00000  Uiso   1.00
C65    C     0.94373   0.75583   0.68751   0.00000  Uiso   1.00
C66    C     0.98507   0.71495   0.65623   0.00000  Uiso   1.00
C67    C     0.96091   0.77170   0.83935   0.00000  Uiso   1.00
C68    C     0.98428   0.81993   0.86204   0.00000  Uiso   1.00
C69    C     0.04418   0.80837   0.91059   0.00000  Uiso   1.00
H70    H     0.98882   0.62298   0.85175   0.00000  Uiso   1.00
H71    H     0.85048   0.60158   0.87263   0.00000  Uiso   1.00
H72    H     0.04266   0.59356   0.75752   0.00000  Uiso   1.00
H73    H     0.08320   0.65765   0.93203   0.00000  Uiso   1.00
H74    H     0.68158   0.60331   0.88478   0.00000  Uiso   1.00
H75    H     0.08682   0.58640   0.64207   0.00000  Uiso   1.00
H76    H     0.17232   0.72155   0.01006   0.00000  Uiso   1.00
H77    H     0.86922   0.81917   0.76712   0.00000  Uiso   1.00
H78    H     0.72432   0.80853   0.78336   0.00000  Uiso   1.00
H79    H     0.91649   0.80051   0.66825   0.00000  Uiso   1.00
H80    H     0.95704   0.86460   0.84276   0.00000  Uiso   1.00
H81    H     0.57918   0.77127   0.81232   0.00000  Uiso   1.00
H82    H     0.98442   0.75437   0.56962   0.00000  Uiso   1.00
H83    H     0.06991   0.88952   0.93761   0.00000  Uiso   1.00
O84    O     0.53721   0.67675   0.86074   0.00000  Uiso   1.00
O85    O     0.06888   0.65457   0.54233   0.00000  Uiso   1.00
O86    O     0.18105   0.83188   0.02512   0.00000  Uiso   1.00
N87    N     0.67737   0.64430   0.86551   0.00000  Uiso   1.00
N88    N     0.05623   0.62849   0.63859   0.00000  Uiso   1.00
N89    N     0.13618   0.75484   0.98262   0.00000  Uiso   1.00
N90    N     0.62227   0.73468   0.82652   0.00000  Uiso   1.00
N91    N     0.00113   0.71887   0.59960   0.00000  Uiso   1.00
N92    N     0.08108   0.84523   0.94363   0.00000  Uiso   1.00
C93    C     0.83511   0.02760   0.74430   0.00000  Uiso   1.00
C94    C     0.84785   0.98463   0.69913   0.00000  Uiso   1.00
C95    C     0.91088   0.97775   0.66643   0.00000  Uiso   1.00
C96    C     0.91179   0.93611   0.62740   0.00000  Uiso   1.00
C97    C     0.94068   0.87451   0.55815   0.00000  Uiso   1.00
C98    C     0.74974   0.06543   0.72560   0.00000  Uiso   1.00
C99    C     0.73027   0.12649   0.71517   0.00000  Uiso   1.00
C100   C     0.64859   0.15286   0.69844   0.00000  Uiso   1.00
C101   C     0.52515   0.21671   0.67034   0.00000  Uiso   1.00
C102   C     0.83204   0.99044   0.80052   0.00000  Uiso   1.00
C103   C     0.88176   0.98844   0.85308   0.00000  Uiso   1.00
C104   C     0.86935   0.95168   0.89943   0.00000  Uiso   1.00
C105   C     0.87370   0.89909   0.98765   0.00000  Uiso   1.00
C106   C     0.72465   0.96588   0.73314   0.00000  Uiso   1.00
C107   C     0.78785   0.95111   0.69306   0.00000  Uiso   1.00
C108   C     0.78867   0.90946   0.65407   0.00000  Uiso   1.00
C109   C     0.85169   0.90252   0.62132   0.00000  Uiso   1.00
C110   C     0.68974   0.03191   0.71954   0.00000  Uiso   1.00
C111   C     0.60806   0.05820   0.70282   0.00000  Uiso   1.00
C112   C     0.58848   0.11927   0.69236   0.00000  Uiso   1.00
C113   C     0.77204   0.95691   0.79445   0.00000  Uiso   1.00
C114   C     0.75955   0.92015   0.84073   0.00000  Uiso   1.00
C115   C     0.80924   0.91810   0.89335   0.00000  Uiso   1.00
H116   H     0.88182   0.05370   0.74902   0.00000  Uiso   1.00
H117   H     0.95730   0.00371   0.67113   0.00000  Uiso   1.00
H118   H     0.77672   0.15242   0.71987   0.00000  Uiso   1.00
H119   H     0.92818   0.01439   0.85776   0.00000  Uiso   1.00
H120   H     0.01450   0.93351   0.58208   0.00000  Uiso   1.00
H121   H     0.63374   0.24707   0.68488   0.00000  Uiso   1.00
H122   H     0.95313   0.95602   0.97565   0.00000  Uiso   1.00
H123   H     0.67794   0.93978   0.72841   0.00000  Uiso   1.00
H124   H     0.74223   0.88353   0.64939   0.00000  Uiso   1.00
H125   H     0.56165   0.03224   0.69813   0.00000  Uiso   1.00
H126   H     0.71312   0.89422   0.83602   0.00000  Uiso   1.00
H127   H     0.83995   0.83597   0.56443   0.00000  Uiso   1.00
H128   H     0.45918   0.14954   0.66723   0.00000  Uiso   1.00
H129   H     0.77857   0.85848   0.95800   0.00000  Uiso   1.00
O130   O     0.97318   0.84981   0.52163   0.00000  Uiso   1.00
O131   O     0.47364   0.26119   0.65651   0.00000  Uiso   1.00
O132   O     0.89267   0.87933   0.03799   0.00000  Uiso   1.00
N133   N     0.96461   0.91826   0.58878   0.00000  Uiso   1.00
N134   N     0.60862   0.21143   0.68488   0.00000  Uiso   1.00
N135   N     0.90721   0.93933   0.95673   0.00000  Uiso   1.00
N136   N     0.87068   0.86578   0.57929   0.00000  Uiso   1.00
N137   N     0.51469   0.15894   0.67539   0.00000  Uiso   1.00
N138   N     0.81328   0.88684   0.94723   0.00000  Uiso   1.00
C139   C     0.41516   0.38066   0.22230   0.00000  Uiso   1.00
C140   C     0.36383   0.33382   0.22183   0.00000  Uiso   1.00
C141   C     0.33268   0.31176   0.26895   0.00000  Uiso   1.00
C142   C     0.28720   0.26908   0.25964   0.00000  Uiso   1.00
C143   C     0.20956   0.19939   0.26719   0.00000  Uiso   1.00
C144   C     0.37049   0.42993   0.17516   0.00000  Uiso   1.00
C145   C     0.34495   0.48867   0.18305   0.00000  Uiso   1.00
C146   C     0.30508   0.52690   0.13445   0.00000  Uiso   1.00
C147   C     0.23783   0.60642   0.06955   0.00000  Uiso   1.00
C148   C     0.49378   0.35320   0.20115   0.00000  Uiso   1.00
C149   C     0.57190   0.34744   0.23089   0.00000  Uiso   1.00
C150   C     0.63583   0.32108   0.20417   0.00000  Uiso   1.00
C151   C     0.76000   0.28146   0.17962   0.00000  Uiso   1.00
C152   C     0.38979   0.34411   0.12197   0.00000  Uiso   1.00
C153   C     0.35005   0.31397   0.16733   0.00000  Uiso   1.00
C154   C     0.30461   0.27132   0.15795   0.00000  Uiso   1.00
C155   C     0.27340   0.24919   0.20505   0.00000  Uiso   1.00
C156   C     0.35671   0.41008   0.12067   0.00000  Uiso   1.00
C157   C     0.31687   0.44823   0.07205   0.00000  Uiso   1.00
C158   C     0.29127   0.50701   0.07986   0.00000  Uiso   1.00
C159   C     0.48000   0.33334   0.14666   0.00000  Uiso   1.00
C160   C     0.54382   0.30699   0.11989   0.00000  Uiso   1.00
C161   C     0.62203   0.30119   0.14958   0.00000  Uiso   1.00
H162   H     0.42589   0.39612   0.26472   0.00000  Uiso   1.00
H163   H     0.34336   0.32714   0.31111   0.00000  Uiso   1.00
H164   H     0.35563   0.50402   0.22522   0.00000  Uiso   1.00
H165   H     0.58254   0.36280   0.27305   0.00000  Uiso   1.00
H166   H     0.24574   0.24191   0.33851   0.00000  Uiso   1.00
H167   H     0.27165   0.61489   0.15740   0.00000  Uiso   1.00
H168   H     0.75014   0.31711   0.25826   0.00000  Uiso   1.00
H169   H     0.37906   0.32866   0.07955   0.00000  Uiso   1.00
H170   H     0.29395   0.25597   0.11578   0.00000  Uiso   1.00
H171   H     0.30622   0.43285   0.02989   0.00000  Uiso   1.00
H172   H     0.53314   0.29164   0.07772   0.00000  Uiso   1.00
H173   H     0.20564   0.18415   0.17997   0.00000  Uiso   1.00
H174   H     0.23155   0.55713   0.99886   0.00000  Uiso   1.00
H175   H     0.71004   0.25934   0.09972   0.00000  Uiso   1.00
O176   O     0.17053   0.16644   0.28641   0.00000  Uiso   1.00
O177   O     0.20453   0.65577   0.04880   0.00000  Uiso   1.00
O178   O     0.83229   0.26509   0.18113   0.00000  Uiso   1.00
N179   N     0.24800   0.23828   0.29623   0.00000  Uiso   1.00
N180   N     0.27221   0.58699   0.12690   0.00000  Uiso   1.00
N181   N     0.71956   0.30861   0.22120   0.00000  Uiso   1.00
N182   N     0.22642   0.20720   0.21092   0.00000  Uiso   1.00
N183   N     0.25063   0.55591   0.04160   0.00000  Uiso   1.00
N184   N     0.69798   0.27753   0.13589   0.00000  Uiso   1.00
C185   C     0.58023   0.13936   0.37674   0.00000  Uiso   1.00
C186   C     0.53642   0.13889   0.31558   0.00000  Uiso   1.00
C187   C     0.56390   0.15459   0.26443   0.00000  Uiso   1.00
C188   C     0.51497   0.15116   0.21288   0.00000  Uiso   1.00
C189   C     0.45817   0.15321   0.11796   0.00000  Uiso   1.00
C190   C     0.59111   0.07712   0.40709   0.00000  Uiso   1.00
C191   C     0.66458   0.04089   0.43290   0.00000  Uiso   1.00
C192   C     0.66168   0.98546   0.45840   0.00000  Uiso   1.00
C193   C     0.68980   0.89162   0.50559   0.00000  Uiso   1.00
C194   C     0.52012   0.17877   0.40715   0.00000  Uiso   1.00
C195   C     0.53391   0.22801   0.43302   0.00000  Uiso   1.00
C196   C     0.47124   0.25816   0.45858   0.00000  Uiso   1.00
C197   C     0.38913   0.32215   0.50586   0.00000  Uiso   1.00
C198   C     0.44445   0.10535   0.37615   0.00000  Uiso   1.00
C199   C     0.46267   0.12041   0.31526   0.00000  Uiso   1.00
C200   C     0.41368   0.11696   0.26377   0.00000  Uiso   1.00
C201   C     0.44108   0.13266   0.21256   0.00000  Uiso   1.00
C202   C     0.51737   0.05864   0.40677   0.00000  Uiso   1.00
C203   C     0.51435   0.00326   0.43224   0.00000  Uiso   1.00
C204   C     0.58780   0.96695   0.45808   0.00000  Uiso   1.00
C205   C     0.44637   0.16030   0.40683   0.00000  Uiso   1.00
C206   C     0.38368   0.19038   0.43236   0.00000  Uiso   1.00
C207   C     0.39736   0.23965   0.45826   0.00000  Uiso   1.00
H208   H     0.63766   0.15374   0.37699   0.00000  Uiso   1.00
H209   H     0.62099   0.16888   0.26470   0.00000  Uiso   1.00
H210   H     0.72165   0.05520   0.43315   0.00000  Uiso   1.00
H211   H     0.59099   0.24229   0.43326   0.00000  Uiso   1.00
H212   H     0.57000   0.17749   0.14005   0.00000  Uiso   1.00
H213   H     0.78224   0.93780   0.49525   0.00000  Uiso   1.00
H214   H     0.50672   0.33231   0.49549   0.00000  Uiso   1.00
H215   H     0.38703   0.09097   0.37590   0.00000  Uiso   1.00
H216   H     0.35660   0.10267   0.26354   0.00000  Uiso   1.00
H217   H     0.45727   0.98898   0.43199   0.00000  Uiso   1.00
H218   H     0.32661   0.17607   0.43210   0.00000  Uiso   1.00
H219   H     0.35542   0.12375   0.13911   0.00000  Uiso   1.00
H220   H     0.56766   0.88405   0.49432   0.00000  Uiso   1.00
H221   H     0.29214   0.27857   0.49455   0.00000  Uiso   1.00
O222   O     0.44723   0.15943   0.06569   0.00000  Uiso   1.00
O223   O     0.72568   0.84496   0.53171   0.00000  Uiso   1.00
O224   O     0.36421   0.36256   0.53202   0.00000  Uiso   1.00
N225   N     0.52366   0.16325   0.15525   0.00000  Uiso   1.00
N226   N     0.72210   0.93914   0.48733   0.00000  Uiso   1.00
N227   N     0.46452   0.30798   0.48757   0.00000  Uiso   1.00
N228   N     0.40820   0.13434   0.15475   0.00000  Uiso   1.00
N229   N     0.60663   0.91023   0.48683   0.00000  Uiso   1.00
N230   N     0.34906   0.27906   0.48707   0.00000  Uiso   1.00
C231   C     0.10547   0.27939   0.54980   0.00000  Uiso   1.00
C232   C     0.13125   0.22920   0.51401   0.00000  Uiso   1.00
C233   C     0.19775   0.18260   0.53016   0.00000  Uiso   1.00
C234   C     0.21104   0.14117   0.49137   0.00000  Uiso   1.00
C235   C     0.25886   0.06245   0.44387   0.00000  Uiso   1.00
C236   C     0.01757   0.27920   0.55728   0.00000  Uiso   1.00
C237   C     0.98850   0.27465   0.60980   0.00000  Uiso   1.00
C238   C     0.90608   0.27531   0.60742   0.00000  Uiso   1.00
C239   C     0.77741   0.27426   0.62708   0.00000  Uiso   1.00
C240   C     0.10272   0.33613   0.51124   0.00000  Uiso   1.00
C241   C     0.14522   0.37946   0.52505   0.00000  Uiso   1.00
C242   C     0.13449   0.42806   0.48391   0.00000  Uiso   1.00
C243   C     0.13802   0.51541   0.43209   0.00000  Uiso   1.00
C244   C     0.01080   0.28867   0.45219   0.00000  Uiso   1.00
C245   C     0.07982   0.23424   0.46100   0.00000  Uiso   1.00
C246   C     0.09301   0.19287   0.42217   0.00000  Uiso   1.00
C247   C     0.15953   0.14622   0.43825   0.00000  Uiso   1.00
C248   C     0.96615   0.28424   0.50426   0.00000  Uiso   1.00
C249   C     0.88375   0.28491   0.50180   0.00000  Uiso   1.00
C250   C     0.85457   0.28036   0.55430   0.00000  Uiso   1.00
C251   C     0.05130   0.34117   0.45822   0.00000  Uiso   1.00
C252   C     0.04048   0.38972   0.41705   0.00000  Uiso   1.00
C253   C     0.08297   0.43311   0.43080   0.00000  Uiso   1.00
H254   H     0.14550   0.27547   0.59108   0.00000  Uiso   1.00
H255   H     0.23753   0.17872   0.57120   0.00000  Uiso   1.00
H256   H     0.02831   0.27075   0.65082   0.00000  Uiso   1.00
H257   H     0.18501   0.37555   0.56608   0.00000  Uiso   1.00
H258   H     0.31686   0.07366   0.52578   0.00000  Uiso   1.00
H259   H     0.87570   0.26774   0.69366   0.00000  Uiso   1.00
H260   H     0.20614   0.48872   0.51498   0.00000  Uiso   1.00
H261   H     0.97076   0.29260   0.41092   0.00000  Uiso   1.00
H262   H     0.05320   0.19678   0.38114   0.00000  Uiso   1.00
H263   H     0.84398   0.28881   0.46076   0.00000  Uiso   1.00
H264   H     0.00069   0.39361   0.37603   0.00000  Uiso   1.00
H265   H     0.16726   0.08832   0.37153   0.00000  Uiso   1.00
H266   H     0.72609   0.28240   0.53941   0.00000  Uiso   1.00
H267   H     0.05654   0.50338   0.36073   0.00000  Uiso   1.00
O268   O     0.29943   0.01764   0.43233   0.00000  Uiso   1.00
O269   O     0.72064   0.27228   0.65258   0.00000  Uiso   1.00
O270   O     0.15418   0.56219   0.41816   0.00000  Uiso   1.00
N271   N     0.27035   0.09026   0.49356   0.00000  Uiso   1.00
N272   N     0.85789   0.27171   0.65052   0.00000  Uiso   1.00
N273   N     0.16681   0.47831   0.48347   0.00000  Uiso   1.00
N274   N     0.18985   0.09815   0.41055   0.00000  Uiso   1.00
N275   N     0.77739   0.27960   0.56751   0.00000  Uiso   1.00
N276   N     0.08631   0.48620   0.40047   0.00000  Uiso   1.00
C277   C     0.28334   0.22719   0.80402   0.00000  Uiso   1.00
C278   C     0.25434   0.21408   0.86171   0.00000  Uiso   1.00
C279   C     0.30405   0.19234   0.91420   0.00000  Uiso   1.00
C280   C     0.26574   0.18333   0.96203   0.00000  Uiso   1.00
C281   C     0.23363   0.16113   0.05232   0.00000  Uiso   1.00
C282   C     0.24503   0.29167   0.78289   0.00000  Uiso   1.00
C283   C     0.28692   0.33516   0.76911   0.00000  Uiso   1.00
C284   C     0.24077   0.39145   0.75058   0.00000  Uiso   1.00
C285   C     0.19421   0.48970   0.71845   0.00000  Uiso   1.00
C286   C     0.24344   0.19134   0.76169   0.00000  Uiso   1.00
C287   C     0.28400   0.15049   0.73006   0.00000  Uiso   1.00
C288   C     0.23651   0.12233   0.69366   0.00000  Uiso   1.00
C289   C     0.18749   0.06481   0.62862   0.00000  Uiso   1.00
C290   C     0.12689   0.24984   0.79561   0.00000  Uiso   1.00
C291   C     0.16935   0.22639   0.85714   0.00000  Uiso   1.00
C292   C     0.13096   0.21740   0.90490   0.00000  Uiso   1.00
C293   C     0.18061   0.19565   0.95746   0.00000  Uiso   1.00
C294   C     0.16005   0.30397   0.77833   0.00000  Uiso   1.00
C295   C     0.11383   0.36022   0.75981   0.00000  Uiso   1.00
C296   C     0.15564   0.40378   0.74600   0.00000  Uiso   1.00
C297   C     0.15846   0.20365   0.75712   0.00000  Uiso   1.00
C298   C     0.11090   0.17555   0.72076   0.00000  Uiso   1.00
C299   C     0.15138   0.13466   0.68909   0.00000  Uiso   1.00
H300   H     0.34950   0.21761   0.80757   0.00000  Uiso   1.00
H301   H     0.36982   0.18283   0.91772   0.00000  Uiso   1.00
H302   H     0.35269   0.32562   0.77264   0.00000  Uiso   1.00
H303   H     0.34976   0.14098   0.73360   0.00000  Uiso   1.00
H304   H     0.35487   0.14971   0.03783   0.00000  Uiso   1.00
H305   H     0.31874   0.45079   0.73190   0.00000  Uiso   1.00
H306   H     0.31258   0.06144   0.64958   0.00000  Uiso   1.00
H307   H     0.06072   0.25942   0.79206   0.00000  Uiso   1.00
H308   H     0.06519   0.22693   0.90136   0.00000  Uiso   1.00
H309   H     0.04807   0.36972   0.75628   0.00000  Uiso   1.00
H310   H     0.04514   0.18508   0.71724   0.00000  Uiso   1.00
H311   H     0.10762   0.18551   0.02455   0.00000  Uiso   1.00
H312   H     0.07150   0.48659   0.71862   0.00000  Uiso   1.00
H313   H     0.06534   0.09724   0.63631   0.00000  Uiso   1.00
O314   O     0.23940   0.14550   0.10338   0.00000  Uiso   1.00
O315   O     0.19201   0.54050   0.70200   0.00000  Uiso   1.00
O316   O     0.18392   0.02968   0.59401   0.00000  Uiso   1.00
N317   N     0.29606   0.16258   0.01970   0.00000  Uiso   1.00
N318   N     0.26229   0.44408   0.73369   0.00000  Uiso   1.00
N319   N     0.25653   0.08008   0.65672   0.00000  Uiso   1.00
N320   N     0.16302   0.18184   0.01256   0.00000  Uiso   1.00
N321   N     0.12925   0.46334   0.72654   0.00000  Uiso   1.00
N322   N     0.12349   0.09934   0.64957   0.00000  Uiso   1.00
C323   C     0.85758   0.06219   0.29173   0.00000  Uiso   1.00
C324   C     0.91198   0.08262   0.25083   0.00000  Uiso   1.00
C325   C     0.88825   0.12919   0.20682   0.00000  Uiso   1.00
C326   C     0.94708   0.14089   0.17420   0.00000  Uiso   1.00
C327   C     0.01944   0.17775   0.10905   0.00000  Uiso   1.00
C328   C     0.89986   0.06427   0.35299   0.00000  Uiso   1.00
C329   C     0.86593   0.09539   0.39487   0.00000  Uiso   1.00
C330   C     0.91455   0.09163   0.44825   0.00000  Uiso   1.00
C331   C     0.96807   0.09997   0.54171   0.00000  Uiso   1.00
C332   C     0.86141   0.99718   0.28530   0.00000  Uiso   1.00
C333   C     0.79515   0.97190   0.27029   0.00000  Uiso   1.00
C334   C     0.81140   0.91165   0.26670   0.00000  Uiso   1.00
C335   C     0.80523   0.81583   0.25506   0.00000  Uiso   1.00
C336   C     0.00424   0.00016   0.31207   0.00000  Uiso   1.00
C337   C     0.99164   0.04893   0.26189   0.00000  Uiso   1.00
C338   C     0.05052   0.06056   0.22933   0.00000  Uiso   1.00
C339   C     0.02688   0.10713   0.18527   0.00000  Uiso   1.00
C340   C     0.97952   0.03058   0.36404   0.00000  Uiso   1.00
C341   C     0.02819   0.02677   0.41738   0.00000  Uiso   1.00
C342   C     0.99435   0.05788   0.45932   0.00000  Uiso   1.00
C343   C     0.94107   0.96349   0.29635   0.00000  Uiso   1.00
C344   C     0.95742   0.90327   0.29279   0.00000  Uiso   1.00
C345   C     0.89121   0.87790   0.27777   0.00000  Uiso   1.00
H346   H     0.79556   0.08842   0.28313   0.00000  Uiso   1.00
H347   H     0.82660   0.15525   0.19828   0.00000  Uiso   1.00
H348   H     0.80428   0.12146   0.38630   0.00000  Uiso   1.00
H349   H     0.73352   0.99798   0.26174   0.00000  Uiso   1.00
H350   H     0.89615   0.21450   0.10911   0.00000  Uiso   1.00
H351   H     0.84908   0.14323   0.50557   0.00000  Uiso   1.00
H352   H     0.69986   0.88285   0.24289   0.00000  Uiso   1.00
H353   H     0.06626   0.97393   0.32068   0.00000  Uiso   1.00
H354   H     0.11216   0.03448   0.23789   0.00000  Uiso   1.00
H355   H     0.08984   0.00069   0.42591   0.00000  Uiso   1.00
H356   H     0.01908   0.87721   0.30135   0.00000  Uiso   1.00
H357   H     0.12792   0.11648   0.14126   0.00000  Uiso   1.00
H358   H     0.08085   0.04520   0.53772   0.00000  Uiso   1.00
H359   H     0.93163   0.78484   0.27504   0.00000  Uiso   1.00
O360   O     0.03735   0.20740   0.07006   0.00000  Uiso   1.00
O361   O     0.97558   0.11388   0.59020   0.00000  Uiso   1.00
O362   O     0.77982   0.77228   0.24558   0.00000  Uiso   1.00
N363   N     0.94440   0.18312   0.12803   0.00000  Uiso   1.00
N364   N     0.90039   0.11648   0.49869   0.00000  Uiso   1.00
N365   N     0.76088   0.87306   0.25313   0.00000  Uiso   1.00
N366   N     0.06911   0.13037   0.14533   0.00000  Uiso   1.00
N367   N     0.02510   0.06374   0.51599   0.00000  Uiso   1.00
N368   N     0.88560   0.82031   0.27043   0.00000  Uiso   1.00
C369   C     0.16754   0.78129   0.30025   0.00000  Uiso   1.00
C370   C     0.17361   0.81844   0.35054   0.00000  Uiso   1.00
C371   C     0.12384   0.82279   0.39315   0.00000  Uiso   1.00
C372   C     0.13925   0.85910   0.43544   0.00000  Uiso   1.00
C373   C     0.13914   0.91209   0.51360   0.00000  Uiso   1.00
C374   C     0.25099   0.74064   0.30462   0.00000  Uiso   1.00
C375   C     0.26626   0.67958   0.30861   0.00000  Uiso   1.00
C376   C     0.34682   0.65040   0.31224   0.00000  Uiso   1.00
C377   C     0.46682   0.58260   0.31907   0.00000  Uiso   1.00
C378   C     0.15743   0.82367   0.24513   0.00000  Uiso   1.00
C379   C     0.09405   0.83240   0.19908   0.00000  Uiso   1.00
C380   C     0.09585   0.87312   0.15261   0.00000  Uiso   1.00
C381   C     0.07059   0.93422   0.06707   0.00000  Uiso   1.00
C382   C     0.28343   0.83805   0.29959   0.00000  Uiso   1.00
C383   C     0.23657   0.84927   0.35018   0.00000  Uiso   1.00
C384   C     0.25206   0.88559   0.39242   0.00000  Uiso   1.00
C385   C     0.20231   0.88999   0.43508   0.00000  Uiso   1.00
C386   C     0.31394   0.77147   0.30427   0.00000  Uiso   1.00
C387   C     0.39449   0.74238   0.30788   0.00000  Uiso   1.00
C388   C     0.40988   0.68129   0.31188   0.00000  Uiso   1.00
C389   C     0.22038   0.85450   0.24477   0.00000  Uiso   1.00
C390   C     0.22228   0.89521   0.19835   0.00000  Uiso   1.00
C391   C     0.15891   0.90400   0.15225   0.00000  Uiso   1.00
H392   H     0.11853   0.75728   0.30053   0.00000  Uiso   1.00
H393   H     0.07513   0.79892   0.39341   0.00000  Uiso   1.00
H394   H     0.21754   0.65573   0.30889   0.00000  Uiso   1.00
H395   H     0.04535   0.80853   0.19938   0.00000  Uiso   1.00
H396   H     0.05480   0.85866   0.49625   0.00000  Uiso   1.00
H397   H     0.35506   0.55675   0.31800   0.00000  Uiso   1.00
H398   H     0.99197   0.87896   0.08707   0.00000  Uiso   1.00
H399   H     0.33244   0.86205   0.29931   0.00000  Uiso   1.00
H400   H     0.30078   0.90945   0.39213   0.00000  Uiso   1.00
H401   H     0.44318   0.76626   0.30760   0.00000  Uiso   1.00
H402   H     0.27100   0.91906   0.19809   0.00000  Uiso   1.00
H403   H     0.23794   0.94837   0.49521   0.00000  Uiso   1.00
H404   H     0.53820   0.64645   0.31695   0.00000  Uiso   1.00
H405   H     0.17512   0.96866   0.08603   0.00000  Uiso   1.00
O406   O     0.12170   0.93278   0.55682   0.00000  Uiso   1.00
O407   O     0.51563   0.53668   0.32295   0.00000  Uiso   1.00
O408   O     0.03927   0.95942   0.01998   0.00000  Uiso   1.00
N409   N     0.10224   0.87328   0.48326   0.00000  Uiso   1.00
N410   N     0.38296   0.59100   0.31661   0.00000  Uiso   1.00
N411   N     0.04352   0.89223   0.10071   0.00000  Uiso   1.00
N412   N     0.20078   0.92155   0.48270   0.00000  Uiso   1.00
N413   N     0.48151   0.63928   0.31605   0.00000  Uiso   1.00
N414   N     0.14207   0.94050   0.10015   0.00000  Uiso   1.00
C415   C     0.65628   0.37659   0.73819   0.00000  Uiso   1.00
C416   C     0.71402   0.41885   0.73458   0.00000  Uiso   1.00
C417   C     0.78187   0.41103   0.70658   0.00000  Uiso   1.00
C418   C     0.82687   0.45473   0.70823   0.00000  Uiso   1.00
C419   C     0.91991   0.51277   0.69829   0.00000  Uiso   1.00
C420   C     0.65537   0.36094   0.80267   0.00000  Uiso   1.00
C421   C     0.67390   0.30443   0.83191   0.00000  Uiso   1.00
C422   C     0.66952   0.29938   0.89087   0.00000  Uiso   1.00
C423   C     0.67145   0.26751   0.98662   0.00000  Uiso   1.00
C424   C     0.57154   0.41270   0.71347   0.00000  Uiso   1.00
C425   C     0.51956   0.39970   0.66772   0.00000  Uiso   1.00
C426   C     0.44459   0.43823   0.65159   0.00000  Uiso   1.00
C427   C     0.31635   0.48672   0.60885   0.00000  Uiso   1.00
C428   C     0.61554   0.46812   0.79091   0.00000  Uiso   1.00
C429   C     0.69189   0.46856   0.76322   0.00000  Uiso   1.00
C430   C     0.73679   0.51229   0.76491   0.00000  Uiso   1.00
C431   C     0.80470   0.50453   0.73691   0.00000  Uiso   1.00
C432   C     0.63324   0.41065   0.83130   0.00000  Uiso   1.00
C433   C     0.62883   0.40568   0.89023   0.00000  Uiso   1.00
C434   C     0.64735   0.34918   0.91955   0.00000  Uiso   1.00
C435   C     0.54940   0.46242   0.74210   0.00000  Uiso   1.00
C436   C     0.47449   0.50096   0.72605   0.00000  Uiso   1.00
C437   C     0.42242   0.48803   0.68028   0.00000  Uiso   1.00
H438   H     0.67351   0.33789   0.71590   0.00000  Uiso   1.00
H439   H     0.79898   0.37255   0.68443   0.00000  Uiso   1.00
H440   H     0.69102   0.26596   0.80973   0.00000  Uiso   1.00
H441   H     0.53671   0.36123   0.64557   0.00000  Uiso   1.00
H442   H     0.92834   0.43289   0.66218   0.00000  Uiso   1.00
H443   H     0.70068   0.20815   0.92639   0.00000  Uiso   1.00
H444   H     0.37528   0.40903   0.58022   0.00000  Uiso   1.00
H445   H     0.59831   0.50682   0.81321   0.00000  Uiso   1.00
H446   H     0.71965   0.55075   0.78707   0.00000  Uiso   1.00
H447   H     0.61169   0.44416   0.91238   0.00000  Uiso   1.00
H448   H     0.45738   0.53943   0.74821   0.00000  Uiso   1.00
H449   H     0.86396   0.57752   0.74549   0.00000  Uiso   1.00
H450   H     0.63629   0.35278   0.00970   0.00000  Uiso   1.00
H451   H     0.31090   0.55366   0.66353   0.00000  Uiso   1.00
O452   O     0.97735   0.53104   0.68490   0.00000  Uiso   1.00
O453   O     0.67865   0.23619   0.03153   0.00000  Uiso   1.00
O454   O     0.25174   0.49975   0.57736   0.00000  Uiso   1.00
N455   N     0.89653   0.46090   0.68536   0.00000  Uiso   1.00
N456   N     0.68369   0.25078   0.93238   0.00000  Uiso   1.00
N457   N     0.37946   0.43858   0.60875   0.00000  Uiso   1.00
N458   N     0.86189   0.53873   0.73019   0.00000  Uiso   1.00
N459   N     0.64904   0.32861   0.97721   0.00000  Uiso   1.00
N460   N     0.34482   0.51641   0.65358   0.00000  Uiso   1.00
C461   C     0.26339   0.71797   0.64407   0.00000  Uiso   1.00
C462   C     0.27488   0.68642   0.70537   0.00000  Uiso   1.00
C463   C     0.21296   0.67638   0.73561   0.00000  Uiso   1.00
C464   C     0.23605   0.64674   0.79121   0.00000  Uiso   1.00
C465   C     0.24140   0.60065   0.88268   0.00000  Uiso   1.00
C466   C     0.30779   0.76865   0.64857   0.00000  Uiso   1.00
C467   C     0.27353   0.82776   0.63105   0.00000  Uiso   1.00
C468   C     0.32433   0.86733   0.63883   0.00000  Uiso   1.00
C469   C     0.38079   0.94891   0.64209   0.00000  Uiso   1.00
C470   C     0.31107   0.67499   0.60909   0.00000  Uiso   1.00
C471   C     0.27958   0.65536   0.55836   0.00000  Uiso   1.00
C472   C     0.33315   0.61609   0.53289   0.00000  Uiso   1.00
C473   C     0.39469   0.55224   0.47485   0.00000  Uiso   1.00
C474   C     0.41451   0.68315   0.68903   0.00000  Uiso   1.00
C475   C     0.35696   0.66751   0.72978   0.00000  Uiso   1.00
C476   C     0.38016   0.63787   0.78535   0.00000  Uiso   1.00
C477   C     0.31828   0.62779   0.81567   0.00000  Uiso   1.00
C478   C     0.38987   0.74974   0.67299   0.00000  Uiso   1.00
C479   C     0.44073   0.78924   0.68079   0.00000  Uiso   1.00
C480   C     0.40657   0.84839   0.66330   0.00000  Uiso   1.00
C481   C     0.39315   0.65608   0.63351   0.00000  Uiso   1.00
C482   C     0.44678   0.61684   0.60811   0.00000  Uiso   1.00
C483   C     0.41538   0.59714   0.55736   0.00000  Uiso   1.00
H484   H     0.19948   0.73270   0.62506   0.00000  Uiso   1.00
H485   H     0.14944   0.69103   0.71670   0.00000  Uiso   1.00
H486   H     0.21001   0.84238   0.61215   0.00000  Uiso   1.00
H487   H     0.21605   0.67000   0.53948   0.00000  Uiso   1.00
H488   H     0.13015   0.63652   0.82908   0.00000  Uiso   1.00
H489   H     0.25788   0.95564   0.60862   0.00000  Uiso   1.00
H490   H     0.27062   0.59215   0.45537   0.00000  Uiso   1.00
H491   H     0.47842   0.66843   0.70804   0.00000  Uiso   1.00
H492   H     0.44368   0.62324   0.80424   0.00000  Uiso   1.00
H493   H     0.50425   0.77459   0.69969   0.00000  Uiso   1.00
H494   H     0.51030   0.60221   0.62702   0.00000  Uiso   1.00
H495   H     0.36897   0.58150   0.90013   0.00000  Uiso   1.00
H496   H     0.49670   0.90062   0.67966   0.00000  Uiso   1.00
H497   H     0.50944   0.53713   0.52642   0.00000  Uiso   1.00
O498   O     0.22167   0.58046   0.92639   0.00000  Uiso   1.00
O499   O     0.38925   0.99913   0.63714   0.00000  Uiso   1.00
O500   O     0.40597   0.52224   0.43609   0.00000  Uiso   1.00
N501   N     0.19113   0.62976   0.83259   0.00000  Uiso   1.00
N502   N     0.31054   0.92812   0.62648   0.00000  Uiso   1.00
N503   N     0.32246   0.58830   0.48320   0.00000  Uiso   1.00
N504   N     0.31963   0.60015   0.87082   0.00000  Uiso   1.00
N505   N     0.43905   0.89851   0.66471   0.00000  Uiso   1.00
N506   N     0.45096   0.55870   0.52143   0.00000  Uiso   1.00
C507   C     0.67786   0.65322   0.46286   0.00000  Uiso   1.00
C508   C     0.68065   0.68296   0.51840   0.00000  Uiso   1.00
C509   C     0.62472   0.73168   0.52856   0.00000  Uiso   1.00
C510   C     0.63801   0.75229   0.58217   0.00000  Uiso   1.00
C511   C     0.63221   0.80263   0.66202   0.00000  Uiso   1.00
C512   C     0.75910   0.65363   0.44186   0.00000  Uiso   1.00
C513   C     0.76912   0.67767   0.38765   0.00000  Uiso   1.00
C514   C     0.84844   0.67357   0.37682   0.00000  Uiso   1.00
C515   C     0.96442   0.67833   0.33782   0.00000  Uiso   1.00
C516   C     0.67816   0.58878   0.48119   0.00000  Uiso   1.00
C517   C     0.62013   0.55828   0.46004   0.00000  Uiso   1.00
C518   C     0.63132   0.49958   0.48231   0.00000  Uiso   1.00
C519   C     0.62163   0.40364   0.50437   0.00000  Uiso   1.00
C520   C     0.80091   0.60318   0.54000   0.00000  Uiso   1.00
C521   C     0.74749   0.65579   0.56030   0.00000  Uiso   1.00
C522   C     0.76087   0.67633   0.61390   0.00000  Uiso   1.00
C523   C     0.70497   0.72506   0.62414   0.00000  Uiso   1.00
C524   C     0.82593   0.62645   0.48375   0.00000  Uiso   1.00
C525   C     0.90526   0.62232   0.47300   0.00000  Uiso   1.00
C526   C     0.91540   0.64635   0.41879   0.00000  Uiso   1.00
C527   C     0.74499   0.56160   0.52308   0.00000  Uiso   1.00
C528   C     0.75628   0.50293   0.54538   0.00000  Uiso   1.00
C529   C     0.69828   0.47235   0.52428   0.00000  Uiso   1.00
H530   H     0.62582   0.67437   0.43024   0.00000  Uiso   1.00
H531   H     0.57301   0.75270   0.49613   0.00000  Uiso   1.00
H532   H     0.71738   0.69869   0.35524   0.00000  Uiso   1.00
H533   H     0.56842   0.57932   0.42762   0.00000  Uiso   1.00
H534   H     0.54395   0.82757   0.58764   0.00000  Uiso   1.00
H535   H     0.84836   0.71367   0.29056   0.00000  Uiso   1.00
H536   H     0.53425   0.46196   0.44318   0.00000  Uiso   1.00
H537   H     0.85295   0.58203   0.57262   0.00000  Uiso   1.00
H538   H     0.81260   0.65529   0.64632   0.00000  Uiso   1.00
H539   H     0.95697   0.60128   0.50543   0.00000  Uiso   1.00
H540   H     0.80801   0.48191   0.57781   0.00000  Uiso   1.00
H541   H     0.73841   0.74851   0.70954   0.00000  Uiso   1.00
H542   H     0.04282   0.63461   0.41246   0.00000  Uiso   1.00
H543   H     0.72871   0.38290   0.56508   0.00000  Uiso   1.00
O544   O     0.61055   0.83791   0.69449   0.00000  Uiso   1.00
O545   O     0.00992   0.68847   0.30474   0.00000  Uiso   1.00
O546   O     0.59781   0.35824   0.50497   0.00000  Uiso   1.00
N547   N     0.59524   0.79890   0.60622   0.00000  Uiso   1.00
N548   N     0.87985   0.69242   0.32847   0.00000  Uiso   1.00
N549   N     0.58619   0.45709   0.47115   0.00000  Uiso   1.00
N550   N     0.69988   0.75636   0.67181   0.00000  Uiso   1.00
N551   N     0.98449   0.64988   0.39407   0.00000  Uiso   1.00
N552   N     0.69083   0.41455   0.53674   0.00000  Uiso   1.00
