data_job_07043
_audit_creation_date              2018-12-19
_audit_creation_method            'Materials Studio'
_symmetry_space_group_name_H-M    'P1'
_symmetry_Int_Tables_number       1
_symmetry_cell_setting            triclinic
loop_
_symmetry_equiv_pos_as_xyz
  x,y,z
_cell_length_a                    13.9508
_cell_length_b                    27.2517
_cell_length_c                    28.9672
_cell_angle_alpha                 113.3206
_cell_angle_beta                  76.7729
_cell_angle_gamma                 98.4206
loop_
_atom_site_label
_atom_site_type_symbol
_atom_site_fract_x
_atom_site_fract_y
_atom_site_fract_z
_atom_site_U_iso_or_equiv
_atom_site_adp_type
_atom_site_occupancy
C1     C     0.98620   0.96203   0.27547   0.00000  Uiso   1.00
C2     C     0.98985   0.00622   0.25520   0.00000  Uiso   1.00
C3     C     0.05535   0.05106   0.26416   0.00000  Uiso   1.00
C4     C     0.04670   0.08682   0.24223   0.00000  Uiso   1.00
C5     C     0.06322   0.15679   0.21531   0.00000  Uiso   1.00
C6     C     0.88139   0.95888   0.30497   0.00000  Uiso   1.00
C7     C     0.85571   0.96390   0.35577   0.00000  Uiso   1.00
C8     C     0.75576   0.95980   0.37574   0.00000  Uiso   1.00
C9     C     0.60390   0.95623   0.42609   0.00000  Uiso   1.00
C10    C     0.99702   0.90989   0.22864   0.00000  Uiso   1.00
C11    C     0.06854   0.87372   0.21526   0.00000  Uiso   1.00
C12    C     0.06592   0.82837   0.17096   0.00000  Uiso   1.00
C13    C     0.09359   0.74874   0.10278   0.00000  Uiso   1.00
C14    C     0.85437   0.94581   0.22060   0.00000  Uiso   1.00
C15    C     0.91824   0.99741   0.22540   0.00000  Uiso   1.00
C16    C     0.90949   0.03311   0.20345   0.00000  Uiso   1.00
C17    C     0.97497   0.07799   0.21237   0.00000  Uiso   1.00
C18    C     0.80978   0.95006   0.27517   0.00000  Uiso   1.00
C19    C     0.70985   0.94595   0.29507   0.00000  Uiso   1.00
C20    C     0.68402   0.95098   0.34588   0.00000  Uiso   1.00
C21    C     0.92541   0.90108   0.19883   0.00000  Uiso   1.00
C22    C     0.92268   0.85577   0.15455   0.00000  Uiso   1.00
C23    C     0.99419   0.81954   0.14110   0.00000  Uiso   1.00
H24    H     0.04194   0.96889   0.29867   0.00000  Uiso   1.00
H25    H     0.11074   0.05786   0.28723   0.00000  Uiso   1.00
H26    H     0.91113   0.97071   0.37883   0.00000  Uiso   1.00
H27    H     0.12393   0.88055   0.23833   0.00000  Uiso   1.00
H28    H     0.15542   0.15263   0.26141   0.00000  Uiso   1.00
H29    H     0.73454   0.96885   0.45455   0.00000  Uiso   1.00
H30    H     0.18326   0.77872   0.15828   0.00000  Uiso   1.00
H31    H     0.79862   0.93895   0.19740   0.00000  Uiso   1.00
H32    H     0.85407   0.02628   0.18039   0.00000  Uiso   1.00
H33    H     0.65446   0.93913   0.27199   0.00000  Uiso   1.00
H34    H     0.86726   0.84897   0.13149   0.00000  Uiso   1.00
H35    H     0.94709   0.12700   0.17469   0.00000  Uiso   1.00
H36    H     0.52621   0.94322   0.36784   0.00000  Uiso   1.00
H37    H     0.97494   0.75309   0.07157   0.00000  Uiso   1.00
O38    O     0.09210   0.19781   0.20870   0.00000  Uiso   1.00
O39    O     0.53992   0.95669   0.46209   0.00000  Uiso   1.00
O40    O     0.12865   0.70725   0.07340   0.00000  Uiso   1.00
N41    N     0.09879   0.13461   0.24332   0.00000  Uiso   1.00
N42    N     0.70529   0.96279   0.42390   0.00000  Uiso   1.00
N43    N     0.12480   0.78503   0.14692   0.00000  Uiso   1.00
N44    N     0.98670   0.12082   0.19666   0.00000  Uiso   1.00
N45    N     0.59319   0.94900   0.37724   0.00000  Uiso   1.00
N46    N     0.01270   0.77124   0.10026   0.00000  Uiso   1.00
C47    C     0.30966   0.88202   0.55295   0.00000  Uiso   1.00
C48    C     0.28266   0.89697   0.61073   0.00000  Uiso   1.00
C49    C     0.34878   0.91372   0.64405   0.00000  Uiso   1.00
C50    C     0.30941   0.92552   0.69555   0.00000  Uiso   1.00
C51    C     0.28298   0.94945   0.78260   0.00000  Uiso   1.00
C52    C     0.26531   0.82520   0.52912   0.00000  Uiso   1.00
C53    C     0.31684   0.78160   0.49381   0.00000  Uiso   1.00
C54    C     0.26285   0.73298   0.47661   0.00000  Uiso   1.00
C55    C     0.20948   0.64549   0.43692   0.00000  Uiso   1.00
C56    C     0.25251   0.91783   0.54109   0.00000  Uiso   1.00
C57    C     0.29327   0.95211   0.51583   0.00000  Uiso   1.00
C58    C     0.22850   0.98147   0.50870   0.00000  Uiso   1.00
C59    C     0.15525   0.03780   0.48760   0.00000  Uiso   1.00
C60    C     0.12216   0.87320   0.58517   0.00000  Uiso   1.00
C61    C     0.18082   0.89218   0.62823   0.00000  Uiso   1.00
C62    C     0.14133   0.90397   0.67969   0.00000  Uiso   1.00
C63    C     0.20738   0.92072   0.71308   0.00000  Uiso   1.00
C64    C     0.16347   0.82041   0.54662   0.00000  Uiso   1.00
C65    C     0.10939   0.77185   0.52946   0.00000  Uiso   1.00
C66    C     0.16083   0.72818   0.49414   0.00000  Uiso   1.00
C67    C     0.15067   0.91304   0.55859   0.00000  Uiso   1.00
C68    C     0.08582   0.94235   0.55148   0.00000  Uiso   1.00
C69    C     0.12647   0.97667   0.52623   0.00000  Uiso   1.00
H70    H     0.38895   0.88574   0.53933   0.00000  Uiso   1.00
H71    H     0.42759   0.91741   0.63049   0.00000  Uiso   1.00
H72    H     0.39565   0.78532   0.48027   0.00000  Uiso   1.00
H73    H     0.37208   0.95580   0.50230   0.00000  Uiso   1.00
H74    H     0.42553   0.95040   0.73927   0.00000  Uiso   1.00
H75    H     0.35818   0.67187   0.42252   0.00000  Uiso   1.00
H76    H     0.30848   0.03136   0.46896   0.00000  Uiso   1.00
H77    H     0.04286   0.86947   0.59879   0.00000  Uiso   1.00
H78    H     0.06252   0.90026   0.69322   0.00000  Uiso   1.00
H79    H     0.03058   0.76816   0.54300   0.00000  Uiso   1.00
H80    H     0.00701   0.93864   0.56503   0.00000  Uiso   1.00
H81    H     0.12922   0.93647   0.79019   0.00000  Uiso   1.00
H82    H     0.06187   0.65794   0.47343   0.00000  Uiso   1.00
H83    H     0.01217   0.01744   0.51988   0.00000  Uiso   1.00
O84    O     0.29654   0.96396   0.82577   0.00000  Uiso   1.00
O85    O     0.20819   0.59855   0.41020   0.00000  Uiso   1.00
O86    O     0.14298   0.07019   0.47113   0.00000  Uiso   1.00
N87    N     0.35309   0.94291   0.73830   0.00000  Uiso   1.00
N88    N     0.29013   0.68250   0.44216   0.00000  Uiso   1.00
N89    N     0.24366   0.01858   0.48557   0.00000  Uiso   1.00
N90    N     0.19365   0.93541   0.76570   0.00000  Uiso   1.00
N91    N     0.13069   0.67500   0.46956   0.00000  Uiso   1.00
N92    N     0.08422   0.01109   0.51296   0.00000  Uiso   1.00
C93    C     0.13646   0.38412   0.99527   0.00000  Uiso   1.00
C94    C     0.14193   0.33197   0.94840   0.00000  Uiso   1.00
C95    C     0.21461   0.29575   0.93156   0.00000  Uiso   1.00
C96    C     0.20646   0.25043   0.88787   0.00000  Uiso   1.00
C97    C     0.22686   0.17080   0.81901   0.00000  Uiso   1.00
C98    C     0.13311   0.42831   0.97600   0.00000  Uiso   1.00
C99    C     0.19838   0.47310   0.98236   0.00000  Uiso   1.00
C100   C     0.18280   0.50888   0.96190   0.00000  Uiso   1.00
C101   C     0.18947   0.57885   0.93592   0.00000  Uiso   1.00
C102   C     0.03584   0.38104   0.02876   0.00000  Uiso   1.00
C103   C     0.01932   0.38610   0.07950   0.00000  Uiso   1.00
C104   C     0.92184   0.38209   0.10347   0.00000  Uiso   1.00
C105   C     0.77748   0.37866   0.15942   0.00000  Uiso   1.00
C106   C     0.99273   0.36802   0.94763   0.00000  Uiso   1.00
C107   C     0.06386   0.32323   0.92252   0.00000  Uiso   1.00
C108   C     0.05559   0.27794   0.87885   0.00000  Uiso   1.00
C109   C     0.12825   0.24167   0.86194   0.00000  Uiso   1.00
C110   C     0.05505   0.41957   0.95012   0.00000  Uiso   1.00
C111   C     0.03936   0.45529   0.92965   0.00000  Uiso   1.00
C112   C     0.10459   0.50012   0.93598   0.00000  Uiso   1.00
C113   C     0.95777   0.37230   0.00289   0.00000  Uiso   1.00
C114   C     0.86030   0.36829   0.02678   0.00000  Uiso   1.00
C115   C     0.84363   0.37333   0.07754   0.00000  Uiso   1.00
H116   H     0.19724   0.39093   0.01542   0.00000  Uiso   1.00
H117   H     0.27502   0.30254   0.95160   0.00000  Uiso   1.00
H118   H     0.25878   0.47986   0.00240   0.00000  Uiso   1.00
H119   H     0.07975   0.39287   0.09952   0.00000  Uiso   1.00
H120   H     0.32685   0.20069   0.86941   0.00000  Uiso   1.00
H121   H     0.29259   0.57460   0.97654   0.00000  Uiso   1.00
H122   H     0.91507   0.39116   0.18134   0.00000  Uiso   1.00
H123   H     0.93195   0.36122   0.92748   0.00000  Uiso   1.00
H124   H     0.99517   0.27119   0.85883   0.00000  Uiso   1.00
H125   H     0.97894   0.44852   0.90962   0.00000  Uiso   1.00
H126   H     0.79991   0.36152   0.00674   0.00000  Uiso   1.00
H127   H     0.09972   0.17525   0.79411   0.00000  Uiso   1.00
H128   H     0.06546   0.54916   0.90124   0.00000  Uiso   1.00
H129   H     0.68793   0.36572   0.10604   0.00000  Uiso   1.00
O130   O     0.25968   0.12929   0.78818   0.00000  Uiso   1.00
O131   O     0.21473   0.61985   0.92874   0.00000  Uiso   1.00
O132   O     0.71942   0.37918   0.19742   0.00000  Uiso   1.00
N133   N     0.26471   0.20705   0.86112   0.00000  Uiso   1.00
N134   N     0.23269   0.55663   0.96127   0.00000  Uiso   1.00
N135   N     0.87973   0.38514   0.15274   0.00000  Uiso   1.00
N136   N     0.14249   0.19336   0.82060   0.00000  Uiso   1.00
N137   N     0.11047   0.54294   0.92075   0.00000  Uiso   1.00
N138   N     0.75751   0.37145   0.11223   0.00000  Uiso   1.00
C139   C     0.56456   0.13737   0.20128   0.00000  Uiso   1.00
C140   C     0.58529   0.10455   0.14389   0.00000  Uiso   1.00
C141   C     0.67660   0.10127   0.11165   0.00000  Uiso   1.00
C142   C     0.68021   0.06908   0.06034   0.00000  Uiso   1.00
C143   C     0.72529   0.02235   0.97403   0.00000  Uiso   1.00
C144   C     0.51705   0.09801   0.22670   0.00000  Uiso   1.00
C145   C     0.55097   0.08924   0.26408   0.00000  Uiso   1.00
C146   C     0.49712   0.05155   0.28248   0.00000  Uiso   1.00
C147   C     0.43622   0.99469   0.32475   0.00000  Uiso   1.00
C148   C     0.48447   0.17435   0.21010   0.00000  Uiso   1.00
C149   C     0.49098   0.22977   0.23354   0.00000  Uiso   1.00
C150   C     0.40969   0.25635   0.23797   0.00000  Uiso   1.00
C151   C     0.29820   0.31803   0.25447   0.00000  Uiso   1.00
C152   C     0.40860   0.08604   0.16750   0.00000  Uiso   1.00
C153   C     0.50058   0.07667   0.12555   0.00000  Uiso   1.00
C154   C     0.50405   0.04448   0.07427   0.00000  Uiso   1.00
C155   C     0.59534   0.04115   0.04195   0.00000  Uiso   1.00
C156   C     0.43234   0.07013   0.20835   0.00000  Uiso   1.00
C157   C     0.37842   0.03245   0.22671   0.00000  Uiso   1.00
C158   C     0.41226   0.02362   0.26410   0.00000  Uiso   1.00
C159   C     0.39976   0.14648   0.19175   0.00000  Uiso   1.00
C160   C     0.31843   0.17298   0.19616   0.00000  Uiso   1.00
C161   C     0.32482   0.22842   0.21959   0.00000  Uiso   1.00
H162   H     0.63051   0.15907   0.21557   0.00000  Uiso   1.00
H163   H     0.74214   0.12285   0.12586   0.00000  Uiso   1.00
H164   H     0.61653   0.11082   0.27827   0.00000  Uiso   1.00
H165   H     0.55655   0.25133   0.24773   0.00000  Uiso   1.00
H166   H     0.82855   0.07038   0.01832   0.00000  Uiso   1.00
H167   H     0.56367   0.04504   0.33970   0.00000  Uiso   1.00
H168   H     0.43719   0.34133   0.27529   0.00000  Uiso   1.00
H169   H     0.34265   0.06433   0.15322   0.00000  Uiso   1.00
H170   H     0.43848   0.02291   0.06009   0.00000  Uiso   1.00
H171   H     0.31287   0.01088   0.21250   0.00000  Uiso   1.00
H172   H     0.25289   0.15139   0.18196   0.00000  Uiso   1.00
H173   H     0.58209   0.98926   0.96493   0.00000  Uiso   1.00
H174   H     0.31720   0.96392   0.28632   0.00000  Uiso   1.00
H175   H     0.19073   0.26021   0.22191   0.00000  Uiso   1.00
O176   O     0.77356   0.00427   0.93149   0.00000  Uiso   1.00
O177   O     0.42603   0.97103   0.35314   0.00000  Uiso   1.00
O178   O     0.26011   0.35975   0.26863   0.00000  Uiso   1.00
N179   N     0.75739   0.05698   0.01853   0.00000  Uiso   1.00
N180   N     0.50975   0.03328   0.31900   0.00000  Uiso   1.00
N181   N     0.39149   0.31029   0.25880   0.00000  Uiso   1.00
N182   N     0.62477   0.01333   0.98981   0.00000  Uiso   1.00
N183   N     0.37713   0.98963   0.29027   0.00000  Uiso   1.00
N184   N     0.25887   0.26664   0.23007   0.00000  Uiso   1.00
C185   C     0.73343   0.32335   0.83996   0.00000  Uiso   1.00
C186   C     0.68441   0.30281   0.88220   0.00000  Uiso   1.00
C187   C     0.73150   0.27892   0.90451   0.00000  Uiso   1.00
C188   C     0.67367   0.26288   0.94256   0.00000  Uiso   1.00
C189   C     0.61296   0.22986   0.00586   0.00000  Uiso   1.00
C190   C     0.71101   0.38215   0.86057   0.00000  Uiso   1.00
C191   C     0.78048   0.42496   0.86470   0.00000  Uiso   1.00
C192   C     0.74504   0.47570   0.88453   0.00000  Uiso   1.00
C193   C     0.72564   0.56584   0.91422   0.00000  Uiso   1.00
C194   C     0.67712   0.29469   0.79621   0.00000  Uiso   1.00
C195   C     0.71809   0.26397   0.74622   0.00000  Uiso   1.00
C196   C     0.65412   0.24109   0.71186   0.00000  Uiso   1.00
C197   C     0.58209   0.19544   0.64163   0.00000  Uiso   1.00
C198   C     0.54700   0.33734   0.86784   0.00000  Uiso   1.00
C199   C     0.58315   0.31041   0.89734   0.00000  Uiso   1.00
C200   C     0.52523   0.29440   0.93536   0.00000  Uiso   1.00
C201   C     0.57223   0.27049   0.95772   0.00000  Uiso   1.00
C202   C     0.60976   0.38974   0.87572   0.00000  Uiso   1.00
C203   C     0.57421   0.44043   0.89554   0.00000  Uiso   1.00
C204   C     0.64360   0.48331   0.89970   0.00000  Uiso   1.00
C205   C     0.57586   0.30228   0.81136   0.00000  Uiso   1.00
C206   C     0.51182   0.27944   0.77707   0.00000  Uiso   1.00
C207   C     0.55267   0.24870   0.72703   0.00000  Uiso   1.00
H208   H     0.81227   0.31744   0.82817   0.00000  Uiso   1.00
H209   H     0.80987   0.27306   0.89279   0.00000  Uiso   1.00
H210   H     0.85883   0.41907   0.85297   0.00000  Uiso   1.00
H211   H     0.79645   0.25811   0.73452   0.00000  Uiso   1.00
H212   H     0.76255   0.22722   0.97112   0.00000  Uiso   1.00
H213   H     0.86580   0.53509   0.88715   0.00000  Uiso   1.00
H214   H     0.73426   0.19567   0.63736   0.00000  Uiso   1.00
H215   H     0.46816   0.34325   0.87963   0.00000  Uiso   1.00
H216   H     0.44687   0.30028   0.94707   0.00000  Uiso   1.00
H217   H     0.49584   0.44629   0.90725   0.00000  Uiso   1.00
H218   H     0.43346   0.28533   0.78880   0.00000  Uiso   1.00
H219   H     0.46793   0.24931   0.01518   0.00000  Uiso   1.00
H220   H     0.57118   0.55719   0.93120   0.00000  Uiso   1.00
H221   H     0.43964   0.21777   0.68142   0.00000  Uiso   1.00
O222   O     0.60745   0.20955   0.03660   0.00000  Uiso   1.00
O223   O     0.74291   0.61346   0.92642   0.00000  Uiso   1.00
O224   O     0.57033   0.16815   0.59871   0.00000  Uiso   1.00
N225   N     0.69613   0.23830   0.97223   0.00000  Uiso   1.00
N226   N     0.79266   0.52615   0.89372   0.00000  Uiso   1.00
N227   N     0.66968   0.20883   0.66019   0.00000  Uiso   1.00
N228   N     0.53760   0.25019   0.99593   0.00000  Uiso   1.00
N229   N     0.63413   0.53804   0.91743   0.00000  Uiso   1.00
N230   N     0.51115   0.22072   0.68390   0.00000  Uiso   1.00
C231   C     0.85048   0.71945   0.62085   0.00000  Uiso   1.00
C232   C     0.81842   0.77662   0.64204   0.00000  Uiso   1.00
C233   C     0.88096   0.82235   0.64772   0.00000  Uiso   1.00
C234   C     0.83719   0.87092   0.66783   0.00000  Uiso   1.00
C235   C     0.80301   0.95927   0.69860   0.00000  Uiso   1.00
C236   C     0.79793   0.68832   0.57601   0.00000  Uiso   1.00
C237   C     0.84325   0.65980   0.52616   0.00000  Uiso   1.00
C238   C     0.78223   0.63403   0.49069   0.00000  Uiso   1.00
C239   C     0.71624   0.58527   0.41895   0.00000  Uiso   1.00
C240   C     0.80561   0.69681   0.66204   0.00000  Uiso   1.00
C241   C     0.85738   0.67540   0.68454   0.00000  Uiso   1.00
C242   C     0.80281   0.65676   0.72149   0.00000  Uiso   1.00
C243   C     0.74875   0.62117   0.78334   0.00000  Uiso   1.00
C244   C     0.66153   0.72440   0.64647   0.00000  Uiso   1.00
C245   C     0.71579   0.77931   0.65596   0.00000  Uiso   1.00
C246   C     0.67190   0.82782   0.67607   0.00000  Uiso   1.00
C247   C     0.73437   0.87361   0.68177   0.00000  Uiso   1.00
C248   C     0.69530   0.69101   0.58992   0.00000  Uiso   1.00
C249   C     0.63420   0.66528   0.55452   0.00000  Uiso   1.00
C250   C     0.67941   0.63672   0.50463   0.00000  Uiso   1.00
C251   C     0.70298   0.69950   0.67597   0.00000  Uiso   1.00
C252   C     0.64832   0.68088   0.71289   0.00000  Uiso   1.00
C253   C     0.70000   0.65945   0.73544   0.00000  Uiso   1.00
H254   H     0.93038   0.71736   0.61001   0.00000  Uiso   1.00
H255   H     0.96038   0.82025   0.63694   0.00000  Uiso   1.00
H256   H     0.92267   0.65772   0.51541   0.00000  Uiso   1.00
H257   H     0.93680   0.67333   0.67375   0.00000  Uiso   1.00
H258   H     0.94838   0.93551   0.67291   0.00000  Uiso   1.00
H259   H     0.86887   0.59279   0.41666   0.00000  Uiso   1.00
H260   H     0.89865   0.62569   0.75057   0.00000  Uiso   1.00
H261   H     0.58162   0.72650   0.65731   0.00000  Uiso   1.00
H262   H     0.59248   0.82989   0.68684   0.00000  Uiso   1.00
H263   H     0.55478   0.66736   0.56530   0.00000  Uiso   1.00
H264   H     0.56890   0.68297   0.72365   0.00000  Uiso   1.00
H265   H     0.64977   0.94333   0.71341   0.00000  Uiso   1.00
H266   H     0.57027   0.60062   0.45716   0.00000  Uiso   1.00
H267   H     0.60005   0.63352   0.79107   0.00000  Uiso   1.00
O268   O     0.81251   0.00727   0.71172   0.00000  Uiso   1.00
O269   O     0.70820   0.55764   0.37553   0.00000  Uiso   1.00
O270   O     0.74728   0.60080   0.81361   0.00000  Uiso   1.00
N271   N     0.87661   0.92316   0.67840   0.00000  Uiso   1.00
N272   N     0.80228   0.60275   0.43882   0.00000  Uiso   1.00
N273   N     0.83012   0.63350   0.75099   0.00000  Uiso   1.00
N274   N     0.71594   0.92737   0.70019   0.00000  Uiso   1.00
N275   N     0.64160   0.60696   0.46061   0.00000  Uiso   1.00
N276   N     0.66945   0.63771   0.77278   0.00000  Uiso   1.00
C277   C     0.07480   0.21452   0.63426   0.00000  Uiso   1.00
C278   C     0.08591   0.17424   0.65690   0.00000  Uiso   1.00
C279   C     0.01758   0.13291   0.66075   0.00000  Uiso   1.00
C280   C     0.04149   0.10039   0.68264   0.00000  Uiso   1.00
C281   C     0.04521   0.03651   0.71512   0.00000  Uiso   1.00
C282   C     0.16485   0.21039   0.59186   0.00000  Uiso   1.00
C283   C     0.16288   0.19947   0.54103   0.00000  Uiso   1.00
C284   C     0.25325   0.19739   0.50817   0.00000  Uiso   1.00
C285   C     0.37951   0.18969   0.43968   0.00000  Uiso   1.00
C286   C     0.08605   0.26971   0.67597   0.00000  Uiso   1.00
C287   C     0.01783   0.30868   0.69587   0.00000  Uiso   1.00
C288   C     0.04187   0.35655   0.73382   0.00000  Uiso   1.00
C289   C     0.04578   0.44095   0.79593   0.00000  Uiso   1.00
C290   C     0.23880   0.23024   0.66628   0.00000  Uiso   1.00
C291   C     0.17499   0.18277   0.67428   0.00000  Uiso   1.00
C292   C     0.19902   0.15030   0.69618   0.00000  Uiso   1.00
C293   C     0.13073   0.10894   0.70007   0.00000  Uiso   1.00
C294   C     0.25392   0.21893   0.60924   0.00000  Uiso   1.00
C295   C     0.34432   0.21686   0.57645   0.00000  Uiso   1.00
C296   C     0.34249   0.20594   0.52559   0.00000  Uiso   1.00
C297   C     0.17512   0.27825   0.69337   0.00000  Uiso   1.00
C298   C     0.19927   0.32607   0.73129   0.00000  Uiso   1.00
C299   C     0.13111   0.36510   0.75124   0.00000  Uiso   1.00
H300   H     0.00546   0.20788   0.62072   0.00000  Uiso   1.00
H301   H     0.94865   0.12632   0.64729   0.00000  Uiso   1.00
H302   H     0.09393   0.19288   0.52759   0.00000  Uiso   1.00
H303   H     0.94891   0.30206   0.68240   0.00000  Uiso   1.00
H304   H     0.92497   0.03965   0.68439   0.00000  Uiso   1.00
H305   H     0.23130   0.18000   0.43200   0.00000  Uiso   1.00
H306   H     0.92549   0.41025   0.75845   0.00000  Uiso   1.00
H307   H     0.30815   0.23689   0.67982   0.00000  Uiso   1.00
H308   H     0.26795   0.15692   0.70963   0.00000  Uiso   1.00
H309   H     0.41323   0.22347   0.58993   0.00000  Uiso   1.00
H310   H     0.26821   0.33266   0.74474   0.00000  Uiso   1.00
H311   H     0.18413   0.06448   0.73499   0.00000  Uiso   1.00
H312   H     0.49046   0.20484   0.48260   0.00000  Uiso   1.00
H313   H     0.18465   0.43508   0.80905   0.00000  Uiso   1.00
O314   O     0.02266   0.99892   0.72822   0.00000  Uiso   1.00
O315   O     0.42455   0.18307   0.39709   0.00000  Uiso   1.00
O316   O     0.02333   0.48514   0.82539   0.00000  Uiso   1.00
N317   N     0.99147   0.05647   0.69222   0.00000  Uiso   1.00
N318   N     0.27787   0.18769   0.45624   0.00000  Uiso   1.00
N319   N     0.99198   0.40295   0.76144   0.00000  Uiso   1.00
N320   N     0.13092   0.06983   0.71944   0.00000  Uiso   1.00
N321   N     0.41732   0.20105   0.48347   0.00000  Uiso   1.00
N322   N     0.13143   0.41631   0.78867   0.00000  Uiso   1.00
C323   C     0.73853   0.30172   0.25998   0.00000  Uiso   1.00
C324   C     0.78501   0.27103   0.20442   0.00000  Uiso   1.00
C325   C     0.74054   0.25734   0.16238   0.00000  Uiso   1.00
C326   C     0.79534   0.22923   0.11473   0.00000  Uiso   1.00
C327   C     0.85296   0.18371   0.02928   0.00000  Uiso   1.00
C328   C     0.80892   0.35037   0.27977   0.00000  Uiso   1.00
C329   C     0.78455   0.40339   0.30107   0.00000  Uiso   1.00
C330   C     0.85948   0.44208   0.31686   0.00000  Uiso   1.00
C331   C     0.95420   0.51974   0.34841   0.00000  Uiso   1.00
C332   C     0.74255   0.26625   0.28900   0.00000  Uiso   1.00
C333   C     0.66237   0.24855   0.31808   0.00000  Uiso   1.00
C334   C     0.68142   0.21642   0.34165   0.00000  Uiso   1.00
C335   C     0.67309   0.16346   0.38754   0.00000  Uiso   1.00
C336   C     0.91494   0.27616   0.25014   0.00000  Uiso   1.00
C337   C     0.88083   0.25714   0.19908   0.00000  Uiso   1.00
C338   C     0.93572   0.22905   0.15149   0.00000  Uiso   1.00
C339   C     0.89133   0.21532   0.10938   0.00000  Uiso   1.00
C340   C     0.90474   0.33649   0.27442   0.00000  Uiso   1.00
C341   C     0.97972   0.37511   0.29018   0.00000  Uiso   1.00
C342   C     0.95547   0.42817   0.31150   0.00000  Uiso   1.00
C343   C     0.83837   0.25236   0.28365   0.00000  Uiso   1.00
C344   C     0.85755   0.22026   0.30719   0.00000  Uiso   1.00
C345   C     0.77741   0.20251   0.33630   0.00000  Uiso   1.00
H346   H     0.66393   0.31254   0.26414   0.00000  Uiso   1.00
H347   H     0.66639   0.26810   0.16653   0.00000  Uiso   1.00
H348   H     0.71039   0.41413   0.30521   0.00000  Uiso   1.00
H349   H     0.58823   0.25930   0.32221   0.00000  Uiso   1.00
H350   H     0.71138   0.21272   0.05595   0.00000  Uiso   1.00
H351   H     0.80415   0.52063   0.34837   0.00000  Uiso   1.00
H352   H     0.54655   0.19416   0.38423   0.00000  Uiso   1.00
H353   H     0.98954   0.26535   0.24598   0.00000  Uiso   1.00
H354   H     0.00987   0.21831   0.14736   0.00000  Uiso   1.00
H355   H     0.05386   0.36435   0.28604   0.00000  Uiso   1.00
H356   H     0.93171   0.20952   0.30304   0.00000  Uiso   1.00
H357   H     0.99016   0.17231   0.04039   0.00000  Uiso   1.00
H358   H     0.08293   0.48023   0.33282   0.00000  Uiso   1.00
H359   H     0.82533   0.15375   0.36867   0.00000  Uiso   1.00
O360   O     0.85828   0.16244   0.98362   0.00000  Uiso   1.00
O361   O     0.97998   0.56642   0.36728   0.00000  Uiso   1.00
O362   O     0.64202   0.13808   0.41432   0.00000  Uiso   1.00
N363   N     0.77420   0.20965   0.06582   0.00000  Uiso   1.00
N364   N     0.86093   0.49754   0.33921   0.00000  Uiso   1.00
N365   N     0.62010   0.19232   0.37275   0.00000  Uiso   1.00
N366   N     0.92421   0.18791   0.05745   0.00000  Uiso   1.00
N367   N     0.01094   0.47580   0.33084   0.00000  Uiso   1.00
N368   N     0.77011   0.17058   0.36438   0.00000  Uiso   1.00
C369   C     0.03962   0.80345   0.80723   0.00000  Uiso   1.00
C370   C     0.04934   0.85825   0.84973   0.00000  Uiso   1.00
C371   C     0.98187   0.89751   0.86866   0.00000  Uiso   1.00
C372   C     0.00422   0.94491   0.90759   0.00000  Uiso   1.00
C373   C     0.00610   0.02880   0.97066   0.00000  Uiso   1.00
C374   C     0.04650   0.76247   0.82986   0.00000  Uiso   1.00
C375   C     0.97664   0.72121   0.83208   0.00000  Uiso   1.00
C376   C     0.99662   0.68799   0.85428   0.00000  Uiso   1.00
C377   C     0.99412   0.62317   0.88648   0.00000  Uiso   1.00
C378   C     0.13245   0.79947   0.76643   0.00000  Uiso   1.00
C379   C     0.13486   0.78930   0.71530   0.00000  Uiso   1.00
C380   C     0.22721   0.78722   0.68410   0.00000  Uiso   1.00
C381   C     0.35816   0.77984   0.61780   0.00000  Uiso   1.00
C382   C     0.19932   0.81782   0.84272   0.00000  Uiso   1.00
C383   C     0.13609   0.86605   0.86900   0.00000  Uiso   1.00
C384   C     0.15856   0.91341   0.90792   0.00000  Uiso   1.00
C385   C     0.09112   0.95274   0.92690   0.00000  Uiso   1.00
C386   C     0.13324   0.77028   0.84914   0.00000  Uiso   1.00
C387   C     0.15333   0.73711   0.87134   0.00000  Uiso   1.00
C388   C     0.08352   0.69581   0.87359   0.00000  Uiso   1.00
C389   C     0.21920   0.80728   0.78570   0.00000  Uiso   1.00
C390   C     0.31155   0.80521   0.75457   0.00000  Uiso   1.00
C391   C     0.31410   0.79504   0.70341   0.00000  Uiso   1.00
H392   H     0.97209   0.79737   0.79223   0.00000  Uiso   1.00
H393   H     0.91474   0.89145   0.85373   0.00000  Uiso   1.00
H394   H     0.90953   0.71517   0.81715   0.00000  Uiso   1.00
H395   H     0.06772   0.78326   0.70040   0.00000  Uiso   1.00
H396   H     0.88940   0.99919   0.93044   0.00000  Uiso   1.00
H397   H     0.87842   0.62750   0.85329   0.00000  Uiso   1.00
H398   H     0.21201   0.77106   0.60710   0.00000  Uiso   1.00
H399   H     0.26686   0.82390   0.85773   0.00000  Uiso   1.00
H400   H     0.22569   0.91944   0.92283   0.00000  Uiso   1.00
H401   H     0.22047   0.74317   0.88625   0.00000  Uiso   1.00
H402   H     0.37866   0.81125   0.76950   0.00000  Uiso   1.00
H403   H     0.14177   0.02191   0.98652   0.00000  Uiso   1.00
H404   H     0.13079   0.65021   0.90937   0.00000  Uiso   1.00
H405   H     0.46438   0.79378   0.66318   0.00000  Uiso   1.00
O406   O     0.98317   0.07291   0.00013   0.00000  Uiso   1.00
O407   O     0.96876   0.58526   0.89891   0.00000  Uiso   1.00
O408   O     0.40642   0.77362   0.57591   0.00000  Uiso   1.00
N409   N     0.95446   0.99143   0.93469   0.00000  Uiso   1.00
N410   N     0.94418   0.64392   0.86258   0.00000  Uiso   1.00
N411   N     0.25606   0.77813   0.63240   0.00000  Uiso   1.00
N412   N     0.09025   0.00366   0.96487   0.00000  Uiso   1.00
N413   N     0.07998   0.65615   0.89275   0.00000  Uiso   1.00
N414   N     0.39185   0.79036   0.66258   0.00000  Uiso   1.00
C415   C     0.60826   0.02537   0.58030   0.00000  Uiso   1.00
C416   C     0.60138   0.05805   0.63742   0.00000  Uiso   1.00
C417   C     0.51665   0.07924   0.67171   0.00000  Uiso   1.00
C418   C     0.52566   0.10794   0.72237   0.00000  Uiso   1.00
C419   C     0.50122   0.15760   0.80866   0.00000  Uiso   1.00
C420   C     0.68781   0.05458   0.55306   0.00000  Uiso   1.00
C421   C     0.67575   0.07285   0.51643   0.00000  Uiso   1.00
C422   C     0.75752   0.09862   0.49608   0.00000  Uiso   1.00
C423   C     0.86728   0.14286   0.45138   0.00000  Uiso   1.00
C424   C     0.64981   0.97260   0.57027   0.00000  Uiso   1.00
C425   C     0.60581   0.92193   0.54810   0.00000  Uiso   1.00
C426   C     0.65561   0.87867   0.54222   0.00000  Uiso   1.00
C427   C     0.70636   0.79562   0.52424   0.00000  Uiso   1.00
C428   C     0.77492   0.03866   0.60927   0.00000  Uiso   1.00
C429   C     0.69191   0.06527   0.65315   0.00000  Uiso   1.00
C430   C     0.70105   0.09394   0.70377   0.00000  Uiso   1.00
C431   C     0.61635   0.11516   0.73814   0.00000  Uiso   1.00
C432   C     0.77833   0.06180   0.56880   0.00000  Uiso   1.00
C433   C     0.86014   0.08755   0.54849   0.00000  Uiso   1.00
C434   C     0.84821   0.10585   0.51184   0.00000  Uiso   1.00
C435   C     0.74033   0.97981   0.58601   0.00000  Uiso   1.00
C436   C     0.79021   0.93663   0.58016   0.00000  Uiso   1.00
C437   C     0.74630   0.88590   0.55798   0.00000  Uiso   1.00
H438   H     0.53778   0.01976   0.56804   0.00000  Uiso   1.00
H439   H     0.44661   0.07365   0.65952   0.00000  Uiso   1.00
H440   H     0.60569   0.06725   0.50426   0.00000  Uiso   1.00
H441   H     0.53576   0.91636   0.53592   0.00000  Uiso   1.00
H442   H     0.38546   0.13660   0.76787   0.00000  Uiso   1.00
H443   H     0.72089   0.12309   0.44049   0.00000  Uiso   1.00
H444   H     0.57344   0.80490   0.50725   0.00000  Uiso   1.00
H445   H     0.84541   0.04428   0.62152   0.00000  Uiso   1.00
H446   H     0.77111   0.09952   0.71593   0.00000  Uiso   1.00
H447   H     0.93019   0.09312   0.56068   0.00000  Uiso   1.00
H448   H     0.86026   0.94223   0.59234   0.00000  Uiso   1.00
H449   H     0.64883   0.15760   0.81366   0.00000  Uiso   1.00
H450   H     0.98427   0.14409   0.48627   0.00000  Uiso   1.00
H451   H     0.83681   0.82590   0.55304   0.00000  Uiso   1.00
O452   O     0.46273   0.18301   0.85190   0.00000  Uiso   1.00
O453   O     0.90280   0.16528   0.42238   0.00000  Uiso   1.00
O454   O     0.70935   0.74782   0.50998   0.00000  Uiso   1.00
N455   N     0.45764   0.13395   0.76569   0.00000  Uiso   1.00
N456   N     0.77124   0.12133   0.45962   0.00000  Uiso   1.00
N457   N     0.63340   0.82385   0.52202   0.00000  Uiso   1.00
N458   N     0.59936   0.14525   0.79033   0.00000  Uiso   1.00
N459   N     0.91296   0.13263   0.48425   0.00000  Uiso   1.00
N460   N     0.77512   0.83515   0.54666   0.00000  Uiso   1.00
C461   C     0.46778   0.84861   0.96333   0.00000  Uiso   1.00
C462   C     0.50550   0.86811   0.91941   0.00000  Uiso   1.00
C463   C     0.45008   0.89192   0.90076   0.00000  Uiso   1.00
C464   C     0.49817   0.90694   0.86034   0.00000  Uiso   1.00
C465   C     0.54154   0.93849   0.79531   0.00000  Uiso   1.00
C466   C     0.48936   0.78963   0.94178   0.00000  Uiso   1.00
C467   C     0.42037   0.74744   0.94195   0.00000  Uiso   1.00
C468   C     0.45488   0.69639   0.92038   0.00000  Uiso   1.00
C469   C     0.47320   0.60610   0.89012   0.00000  Uiso   1.00
C470   C     0.53452   0.87736   0.00235   0.00000  Uiso   1.00
C471   C     0.50351   0.90894   0.05345   0.00000  Uiso   1.00
C472   C     0.57604   0.93175   0.08288   0.00000  Uiso   1.00
C473   C     0.66448   0.97767   0.14666   0.00000  Uiso   1.00
C474   C     0.65172   0.83296   0.92473   0.00000  Uiso   1.00
C475   C     0.60541   0.85961   0.89844   0.00000  Uiso   1.00
C476   C     0.65360   0.87460   0.85805   0.00000  Uiso   1.00
C477   C     0.59827   0.89843   0.83934   0.00000  Uiso   1.00
C478   C     0.58927   0.78113   0.92082   0.00000  Uiso   1.00
C479   C     0.62389   0.73013   0.89925   0.00000  Uiso   1.00
C480   C     0.55498   0.68788   0.89938   0.00000  Uiso   1.00
C481   C     0.63444   0.86886   0.98139   0.00000  Uiso   1.00
C482   C     0.70703   0.89162   0.01074   0.00000  Uiso   1.00
C483   C     0.67614   0.92323   0.06187   0.00000  Uiso   1.00
H484   H     0.38999   0.85523   0.97966   0.00000  Uiso   1.00
H485   H     0.37276   0.89848   0.91699   0.00000  Uiso   1.00
H486   H     0.34306   0.75403   0.95818   0.00000  Uiso   1.00
H487   H     0.42619   0.91550   0.06966   0.00000  Uiso   1.00
H488   H     0.39771   0.94268   0.83825   0.00000  Uiso   1.00
H489   H     0.33510   0.63810   0.92513   0.00000  Uiso   1.00
H490   H     0.51038   0.97859   0.16020   0.00000  Uiso   1.00
H491   H     0.72951   0.82634   0.90841   0.00000  Uiso   1.00
H492   H     0.73092   0.86802   0.84183   0.00000  Uiso   1.00
H493   H     0.70121   0.72357   0.88303   0.00000  Uiso   1.00
H494   H     0.78434   0.88504   0.99450   0.00000  Uiso   1.00
H495   H     0.68841   0.91795   0.77725   0.00000  Uiso   1.00
H496   H     0.62579   0.61337   0.86413   0.00000  Uiso   1.00
H497   H     0.80107   0.95386   0.09920   0.00000  Uiso   1.00
O498   O     0.53785   0.95823   0.76523   0.00000  Uiso   1.00
O499   O     0.45570   0.55864   0.87922   0.00000  Uiso   1.00
O500   O     0.68567   0.00536   0.18763   0.00000  Uiso   1.00
N501   N     0.46594   0.93115   0.83304   0.00000  Uiso   1.00
N502   N     0.40739   0.64638   0.91426   0.00000  Uiso   1.00
N503   N     0.57127   0.96470   0.13403   0.00000  Uiso   1.00
N504   N     0.62236   0.91784   0.80022   0.00000  Uiso   1.00
N505   N     0.56381   0.63308   0.88143   0.00000  Uiso   1.00
N506   N     0.72769   0.95140   0.10121   0.00000  Uiso   1.00
C507   C     0.31303   0.44692   0.18211   0.00000  Uiso   1.00
C508   C     0.33322   0.38765   0.15812   0.00000  Uiso   1.00
C509   C     0.26220   0.34531   0.15083   0.00000  Uiso   1.00
C510   C     0.29569   0.29402   0.12822   0.00000  Uiso   1.00
C511   C     0.31169   0.20331   0.09323   0.00000  Uiso   1.00
C512   C     0.36761   0.47155   0.22689   0.00000  Uiso   1.00
C513   C     0.32549   0.49975   0.27742   0.00000  Uiso   1.00
C514   C     0.38793   0.51908   0.31270   0.00000  Uiso   1.00
C515   C     0.45733   0.55865   0.38447   0.00000  Uiso   1.00
C516   C     0.36558   0.47072   0.14271   0.00000  Uiso   1.00
C517   C     0.32178   0.49824   0.12246   0.00000  Uiso   1.00
C518   C     0.38253   0.51689   0.08688   0.00000  Uiso   1.00
C519   C     0.44879   0.55517   0.02795   0.00000  Uiso   1.00
C520   C     0.49882   0.43112   0.15493   0.00000  Uiso   1.00
C521   C     0.43413   0.37908   0.14336   0.00000  Uiso   1.00
C522   C     0.46774   0.32783   0.12075   0.00000  Uiso   1.00
C523   C     0.39678   0.28542   0.11343   0.00000  Uiso   1.00
C524   C     0.46851   0.46297   0.21213   0.00000  Uiso   1.00
C525   C     0.53104   0.48227   0.24734   0.00000  Uiso   1.00
C526   C     0.48903   0.51048   0.29791   0.00000  Uiso   1.00
C527   C     0.46650   0.46214   0.12794   0.00000  Uiso   1.00
C528   C     0.52733   0.48075   0.09239   0.00000  Uiso   1.00
C529   C     0.48362   0.50829   0.07209   0.00000  Uiso   1.00
H530   H     0.23447   0.45360   0.19361   0.00000  Uiso   1.00
H531   H     0.18411   0.35197   0.16226   0.00000  Uiso   1.00
H532   H     0.24740   0.50638   0.28883   0.00000  Uiso   1.00
H533   H     0.24369   0.50487   0.13390   0.00000  Uiso   1.00
H534   H     0.17278   0.23551   0.12101   0.00000  Uiso   1.00
H535   H     0.30623   0.56112   0.38788   0.00000  Uiso   1.00
H536   H     0.29841   0.55793   0.06118   0.00000  Uiso   1.00
H537   H     0.57738   0.42444   0.14344   0.00000  Uiso   1.00
H538   H     0.54584   0.32121   0.10933   0.00000  Uiso   1.00
H539   H     0.60912   0.47562   0.23590   0.00000  Uiso   1.00
H540   H     0.60541   0.47411   0.08097   0.00000  Uiso   1.00
H541   H     0.46637   0.21054   0.07806   0.00000  Uiso   1.00
H542   H     0.59982   0.53615   0.34492   0.00000  Uiso   1.00
H543   H     0.59200   0.53296   0.01823   0.00000  Uiso   1.00
O544   O     0.29264   0.15564   0.07802   0.00000  Uiso   1.00
O545   O     0.46772   0.58284   0.42814   0.00000  Uiso   1.00
O546   O     0.45745   0.57865   0.99952   0.00000  Uiso   1.00
N547   N     0.24620   0.24380   0.11557   0.00000  Uiso   1.00
N548   N     0.37097   0.54822   0.36508   0.00000  Uiso   1.00
N549   N     0.36366   0.54525   0.05966   0.00000  Uiso   1.00
N550   N     0.40418   0.23037   0.09246   0.00000  Uiso   1.00
N551   N     0.52895   0.53478   0.34197   0.00000  Uiso   1.00
N552   N     0.52164   0.53181   0.03654   0.00000  Uiso   1.00
