data_job_05320
_audit_creation_date              2018-12-19
_audit_creation_method            'Materials Studio'
_symmetry_space_group_name_H-M    'P1'
_symmetry_Int_Tables_number       1
_symmetry_cell_setting            triclinic
loop_
_symmetry_equiv_pos_as_xyz
  x,y,z
_cell_length_a                    20.3672
_cell_length_b                    12.4258
_cell_length_c                    23.5224
_cell_angle_alpha                 90.0000
_cell_angle_beta                  90.0000
_cell_angle_gamma                 90.0000
loop_
_atom_site_label
_atom_site_type_symbol
_atom_site_fract_x
_atom_site_fract_y
_atom_site_fract_z
_atom_site_U_iso_or_equiv
_atom_site_adp_type
_atom_site_occupancy
C1     C     0.18980   0.86738   0.08411   0.00000  Uiso   1.00
C2     C     0.12668   0.85759   0.04962   0.00000  Uiso   1.00
C3     C     0.12063   0.87615   0.99168   0.00000  Uiso   1.00
C4     C     0.05868   0.86291   0.96808   0.00000  Uiso   1.00
C5     C     0.96887   0.85244   0.90948   0.00000  Uiso   1.00
C6     C     0.17506   0.94719   0.13167   0.00000  Uiso   1.00
C7     C     0.20969   0.04108   0.14272   0.00000  Uiso   1.00
C8     C     0.18847   0.10325   0.18819   0.00000  Uiso   1.00
C9     C     0.17380   0.23185   0.25701   0.00000  Uiso   1.00
C10    C     0.19962   0.75862   0.11291   0.00000  Uiso   1.00
C11    C     0.25492   0.69397   0.10820   0.00000  Uiso   1.00
C12    C     0.25438   0.59739   0.13789   0.00000  Uiso   1.00
C13    C     0.27785   0.43321   0.17758   0.00000  Uiso   1.00
C14    C     0.09053   0.81085   0.14522   0.00000  Uiso   1.00
C15    C     0.07276   0.82689   0.08282   0.00000  Uiso   1.00
C16    C     0.01080   0.81361   0.05929   0.00000  Uiso   1.00
C17    C     0.00466   0.83215   0.00133   0.00000  Uiso   1.00
C18    C     0.12114   0.91649   0.16487   0.00000  Uiso   1.00
C19    C     0.09986   0.97854   0.21033   0.00000  Uiso   1.00
C20    C     0.13445   0.07250   0.22145   0.00000  Uiso   1.00
C21    C     0.14570   0.72792   0.14611   0.00000  Uiso   1.00
C22    C     0.14508   0.63143   0.17581   0.00000  Uiso   1.00
C23    C     0.20036   0.56664   0.17115   0.00000  Uiso   1.00
H24    H     0.23178   0.89128   0.05827   0.00000  Uiso   1.00
H25    H     0.16237   0.89992   0.96601   0.00000  Uiso   1.00
H26    H     0.25142   0.06481   0.11703   0.00000  Uiso   1.00
H27    H     0.29663   0.71775   0.08251   0.00000  Uiso   1.00
H28    H     0.06164   0.89599   0.87836   0.00000  Uiso   1.00
H29    H     0.24942   0.24365   0.19681   0.00000  Uiso   1.00
H30    H     0.34477   0.51182   0.12403   0.00000  Uiso   1.00
H31    H     0.04855   0.78695   0.17107   0.00000  Uiso   1.00
H32    H     0.96908   0.78985   0.08499   0.00000  Uiso   1.00
H33    H     0.05814   0.95475   0.23601   0.00000  Uiso   1.00
H34    H     0.10335   0.60769   0.20150   0.00000  Uiso   1.00
H35    H     0.90476   0.80667   0.97493   0.00000  Uiso   1.00
H36    H     0.09254   0.15433   0.29339   0.00000  Uiso   1.00
H37    H     0.18789   0.42249   0.22060   0.00000  Uiso   1.00
O38    O     0.93422   0.85516   0.86800   0.00000  Uiso   1.00
O39    O     0.18060   0.31127   0.28579   0.00000  Uiso   1.00
O40    O     0.30569   0.35112   0.19030   0.00000  Uiso   1.00
N41    N     0.03562   0.87455   0.91290   0.00000  Uiso   1.00
N42    N     0.21118   0.19960   0.21063   0.00000  Uiso   1.00
N43    N     0.30033   0.51541   0.14259   0.00000  Uiso   1.00
N44    N     0.95121   0.82648   0.96487   0.00000  Uiso   1.00
N45    N     0.12677   0.15153   0.26259   0.00000  Uiso   1.00
N46    N     0.21591   0.46734   0.19455   0.00000  Uiso   1.00
C47    C     0.68980   0.36738   0.08411   0.00000  Uiso   1.00
C48    C     0.62668   0.35759   0.04962   0.00000  Uiso   1.00
C49    C     0.62063   0.37615   0.99168   0.00000  Uiso   1.00
C50    C     0.55868   0.36291   0.96808   0.00000  Uiso   1.00
C51    C     0.46887   0.35244   0.90948   0.00000  Uiso   1.00
C52    C     0.67506   0.44719   0.13167   0.00000  Uiso   1.00
C53    C     0.70969   0.54108   0.14272   0.00000  Uiso   1.00
C54    C     0.68847   0.60325   0.18819   0.00000  Uiso   1.00
C55    C     0.67380   0.73185   0.25701   0.00000  Uiso   1.00
C56    C     0.69962   0.25862   0.11291   0.00000  Uiso   1.00
C57    C     0.75492   0.19397   0.10820   0.00000  Uiso   1.00
C58    C     0.75438   0.09739   0.13789   0.00000  Uiso   1.00
C59    C     0.77785   0.93321   0.17758   0.00000  Uiso   1.00
C60    C     0.59053   0.31085   0.14522   0.00000  Uiso   1.00
C61    C     0.57276   0.32689   0.08282   0.00000  Uiso   1.00
C62    C     0.51080   0.31361   0.05929   0.00000  Uiso   1.00
C63    C     0.50466   0.33215   0.00133   0.00000  Uiso   1.00
C64    C     0.62114   0.41649   0.16487   0.00000  Uiso   1.00
C65    C     0.59986   0.47854   0.21033   0.00000  Uiso   1.00
C66    C     0.63445   0.57250   0.22145   0.00000  Uiso   1.00
C67    C     0.64570   0.22792   0.14611   0.00000  Uiso   1.00
C68    C     0.64508   0.13143   0.17581   0.00000  Uiso   1.00
C69    C     0.70036   0.06664   0.17115   0.00000  Uiso   1.00
H70    H     0.73178   0.39128   0.05827   0.00000  Uiso   1.00
H71    H     0.66237   0.39992   0.96601   0.00000  Uiso   1.00
H72    H     0.75142   0.56481   0.11703   0.00000  Uiso   1.00
H73    H     0.79663   0.21775   0.08251   0.00000  Uiso   1.00
H74    H     0.56164   0.39599   0.87836   0.00000  Uiso   1.00
H75    H     0.74942   0.74365   0.19681   0.00000  Uiso   1.00
H76    H     0.84477   0.01182   0.12403   0.00000  Uiso   1.00
H77    H     0.54855   0.28695   0.17107   0.00000  Uiso   1.00
H78    H     0.46908   0.28985   0.08499   0.00000  Uiso   1.00
H79    H     0.55814   0.45475   0.23601   0.00000  Uiso   1.00
H80    H     0.60335   0.10769   0.20150   0.00000  Uiso   1.00
H81    H     0.40476   0.30667   0.97493   0.00000  Uiso   1.00
H82    H     0.59254   0.65433   0.29339   0.00000  Uiso   1.00
H83    H     0.68789   0.92249   0.22060   0.00000  Uiso   1.00
O84    O     0.43422   0.35516   0.86800   0.00000  Uiso   1.00
O85    O     0.68060   0.81127   0.28579   0.00000  Uiso   1.00
O86    O     0.80569   0.85112   0.19030   0.00000  Uiso   1.00
N87    N     0.53562   0.37455   0.91290   0.00000  Uiso   1.00
N88    N     0.71118   0.69960   0.21063   0.00000  Uiso   1.00
N89    N     0.80033   0.01541   0.14259   0.00000  Uiso   1.00
N90    N     0.45121   0.32648   0.96487   0.00000  Uiso   1.00
N91    N     0.62677   0.65153   0.26259   0.00000  Uiso   1.00
N92    N     0.71591   0.96734   0.19455   0.00000  Uiso   1.00
C93    C     0.81020   0.13262   0.58411   0.00000  Uiso   1.00
C94    C     0.87332   0.14241   0.54962   0.00000  Uiso   1.00
C95    C     0.87937   0.12385   0.49168   0.00000  Uiso   1.00
C96    C     0.94132   0.13709   0.46808   0.00000  Uiso   1.00
C97    C     0.03113   0.14756   0.40948   0.00000  Uiso   1.00
C98    C     0.82494   0.05281   0.63167   0.00000  Uiso   1.00
C99    C     0.79031   0.95892   0.64272   0.00000  Uiso   1.00
C100   C     0.81153   0.89675   0.68819   0.00000  Uiso   1.00
C101   C     0.82620   0.76815   0.75701   0.00000  Uiso   1.00
C102   C     0.80038   0.24138   0.61291   0.00000  Uiso   1.00
C103   C     0.74508   0.30603   0.60820   0.00000  Uiso   1.00
C104   C     0.74562   0.40261   0.63789   0.00000  Uiso   1.00
C105   C     0.72215   0.56679   0.67758   0.00000  Uiso   1.00
C106   C     0.90947   0.18915   0.64522   0.00000  Uiso   1.00
C107   C     0.92724   0.17311   0.58282   0.00000  Uiso   1.00
C108   C     0.98920   0.18639   0.55929   0.00000  Uiso   1.00
C109   C     0.99534   0.16785   0.50133   0.00000  Uiso   1.00
C110   C     0.87886   0.08351   0.66487   0.00000  Uiso   1.00
C111   C     0.90014   0.02146   0.71033   0.00000  Uiso   1.00
C112   C     0.86555   0.92750   0.72145   0.00000  Uiso   1.00
C113   C     0.85430   0.27208   0.64611   0.00000  Uiso   1.00
C114   C     0.85492   0.36857   0.67581   0.00000  Uiso   1.00
C115   C     0.79964   0.43336   0.67115   0.00000  Uiso   1.00
H116   H     0.76822   0.10872   0.55827   0.00000  Uiso   1.00
H117   H     0.83763   0.10008   0.46601   0.00000  Uiso   1.00
H118   H     0.74858   0.93519   0.61703   0.00000  Uiso   1.00
H119   H     0.70337   0.28225   0.58251   0.00000  Uiso   1.00
H120   H     0.93836   0.10401   0.37836   0.00000  Uiso   1.00
H121   H     0.75058   0.75635   0.69681   0.00000  Uiso   1.00
H122   H     0.65523   0.48818   0.62403   0.00000  Uiso   1.00
H123   H     0.95145   0.21305   0.67107   0.00000  Uiso   1.00
H124   H     0.03092   0.21015   0.58499   0.00000  Uiso   1.00
H125   H     0.94186   0.04525   0.73601   0.00000  Uiso   1.00
H126   H     0.89665   0.39231   0.70150   0.00000  Uiso   1.00
H127   H     0.09524   0.19333   0.47493   0.00000  Uiso   1.00
H128   H     0.90746   0.84567   0.79339   0.00000  Uiso   1.00
H129   H     0.81211   0.57751   0.72060   0.00000  Uiso   1.00
O130   O     0.06578   0.14484   0.36800   0.00000  Uiso   1.00
O131   O     0.81940   0.68873   0.78579   0.00000  Uiso   1.00
O132   O     0.69431   0.64888   0.69030   0.00000  Uiso   1.00
N133   N     0.96438   0.12545   0.41290   0.00000  Uiso   1.00
N134   N     0.78882   0.80040   0.71063   0.00000  Uiso   1.00
N135   N     0.69967   0.48459   0.64259   0.00000  Uiso   1.00
N136   N     0.04879   0.17352   0.46487   0.00000  Uiso   1.00
N137   N     0.87323   0.84847   0.76259   0.00000  Uiso   1.00
N138   N     0.78409   0.53266   0.69455   0.00000  Uiso   1.00
C139   C     0.31020   0.63262   0.58411   0.00000  Uiso   1.00
C140   C     0.37332   0.64241   0.54962   0.00000  Uiso   1.00
C141   C     0.37937   0.62385   0.49168   0.00000  Uiso   1.00
C142   C     0.44132   0.63709   0.46808   0.00000  Uiso   1.00
C143   C     0.53113   0.64756   0.40948   0.00000  Uiso   1.00
C144   C     0.32494   0.55281   0.63167   0.00000  Uiso   1.00
C145   C     0.29031   0.45892   0.64272   0.00000  Uiso   1.00
C146   C     0.31153   0.39675   0.68819   0.00000  Uiso   1.00
C147   C     0.32620   0.26815   0.75701   0.00000  Uiso   1.00
C148   C     0.30038   0.74138   0.61291   0.00000  Uiso   1.00
C149   C     0.24508   0.80603   0.60820   0.00000  Uiso   1.00
C150   C     0.24562   0.90261   0.63789   0.00000  Uiso   1.00
C151   C     0.22215   0.06679   0.67758   0.00000  Uiso   1.00
C152   C     0.40947   0.68915   0.64522   0.00000  Uiso   1.00
C153   C     0.42724   0.67311   0.58282   0.00000  Uiso   1.00
C154   C     0.48920   0.68639   0.55929   0.00000  Uiso   1.00
C155   C     0.49534   0.66785   0.50133   0.00000  Uiso   1.00
C156   C     0.37886   0.58351   0.66487   0.00000  Uiso   1.00
C157   C     0.40014   0.52146   0.71033   0.00000  Uiso   1.00
C158   C     0.36555   0.42750   0.72145   0.00000  Uiso   1.00
C159   C     0.35430   0.77208   0.64611   0.00000  Uiso   1.00
C160   C     0.35492   0.86857   0.67581   0.00000  Uiso   1.00
C161   C     0.29964   0.93336   0.67115   0.00000  Uiso   1.00
H162   H     0.26822   0.60872   0.55827   0.00000  Uiso   1.00
H163   H     0.33763   0.60008   0.46601   0.00000  Uiso   1.00
H164   H     0.24858   0.43519   0.61703   0.00000  Uiso   1.00
H165   H     0.20337   0.78225   0.58251   0.00000  Uiso   1.00
H166   H     0.43836   0.60401   0.37836   0.00000  Uiso   1.00
H167   H     0.25058   0.25635   0.69681   0.00000  Uiso   1.00
H168   H     0.15523   0.98818   0.62403   0.00000  Uiso   1.00
H169   H     0.45145   0.71305   0.67107   0.00000  Uiso   1.00
H170   H     0.53092   0.71015   0.58499   0.00000  Uiso   1.00
H171   H     0.44186   0.54525   0.73601   0.00000  Uiso   1.00
H172   H     0.39665   0.89231   0.70150   0.00000  Uiso   1.00
H173   H     0.59524   0.69333   0.47493   0.00000  Uiso   1.00
H174   H     0.40746   0.34567   0.79339   0.00000  Uiso   1.00
H175   H     0.31211   0.07751   0.72060   0.00000  Uiso   1.00
O176   O     0.56578   0.64484   0.36800   0.00000  Uiso   1.00
O177   O     0.31940   0.18873   0.78579   0.00000  Uiso   1.00
O178   O     0.19431   0.14888   0.69030   0.00000  Uiso   1.00
N179   N     0.46438   0.62545   0.41290   0.00000  Uiso   1.00
N180   N     0.28882   0.30040   0.71063   0.00000  Uiso   1.00
N181   N     0.19967   0.98459   0.64259   0.00000  Uiso   1.00
N182   N     0.54879   0.67352   0.46487   0.00000  Uiso   1.00
N183   N     0.37323   0.34847   0.76259   0.00000  Uiso   1.00
N184   N     0.28409   0.03266   0.69455   0.00000  Uiso   1.00
C185   C     0.81020   0.86738   0.41589   0.00000  Uiso   1.00
C186   C     0.87332   0.85759   0.45038   0.00000  Uiso   1.00
C187   C     0.87937   0.87615   0.50832   0.00000  Uiso   1.00
C188   C     0.94132   0.86291   0.53192   0.00000  Uiso   1.00
C189   C     0.03113   0.85244   0.59052   0.00000  Uiso   1.00
C190   C     0.82494   0.94719   0.36833   0.00000  Uiso   1.00
C191   C     0.79031   0.04108   0.35728   0.00000  Uiso   1.00
C192   C     0.81153   0.10325   0.31181   0.00000  Uiso   1.00
C193   C     0.82620   0.23185   0.24299   0.00000  Uiso   1.00
C194   C     0.80038   0.75862   0.38709   0.00000  Uiso   1.00
C195   C     0.74508   0.69397   0.39180   0.00000  Uiso   1.00
C196   C     0.74562   0.59739   0.36211   0.00000  Uiso   1.00
C197   C     0.72215   0.43321   0.32242   0.00000  Uiso   1.00
C198   C     0.90947   0.81085   0.35478   0.00000  Uiso   1.00
C199   C     0.92724   0.82689   0.41718   0.00000  Uiso   1.00
C200   C     0.98920   0.81361   0.44071   0.00000  Uiso   1.00
C201   C     0.99534   0.83215   0.49867   0.00000  Uiso   1.00
C202   C     0.87886   0.91649   0.33513   0.00000  Uiso   1.00
C203   C     0.90014   0.97854   0.28967   0.00000  Uiso   1.00
C204   C     0.86555   0.07250   0.27855   0.00000  Uiso   1.00
C205   C     0.85430   0.72792   0.35389   0.00000  Uiso   1.00
C206   C     0.85492   0.63143   0.32419   0.00000  Uiso   1.00
C207   C     0.79964   0.56664   0.32885   0.00000  Uiso   1.00
H208   H     0.76822   0.89128   0.44173   0.00000  Uiso   1.00
H209   H     0.83763   0.89992   0.53399   0.00000  Uiso   1.00
H210   H     0.74858   0.06481   0.38297   0.00000  Uiso   1.00
H211   H     0.70337   0.71775   0.41749   0.00000  Uiso   1.00
H212   H     0.93836   0.89599   0.62164   0.00000  Uiso   1.00
H213   H     0.75058   0.24365   0.30319   0.00000  Uiso   1.00
H214   H     0.65523   0.51182   0.37597   0.00000  Uiso   1.00
H215   H     0.95145   0.78695   0.32893   0.00000  Uiso   1.00
H216   H     0.03092   0.78985   0.41501   0.00000  Uiso   1.00
H217   H     0.94186   0.95475   0.26399   0.00000  Uiso   1.00
H218   H     0.89665   0.60769   0.29850   0.00000  Uiso   1.00
H219   H     0.09524   0.80667   0.52507   0.00000  Uiso   1.00
H220   H     0.90746   0.15433   0.20661   0.00000  Uiso   1.00
H221   H     0.81211   0.42249   0.27940   0.00000  Uiso   1.00
O222   O     0.06578   0.85516   0.63200   0.00000  Uiso   1.00
O223   O     0.81940   0.31127   0.21421   0.00000  Uiso   1.00
O224   O     0.69431   0.35112   0.30970   0.00000  Uiso   1.00
N225   N     0.96438   0.87455   0.58710   0.00000  Uiso   1.00
N226   N     0.78882   0.19960   0.28937   0.00000  Uiso   1.00
N227   N     0.69967   0.51541   0.35741   0.00000  Uiso   1.00
N228   N     0.04879   0.82648   0.53513   0.00000  Uiso   1.00
N229   N     0.87323   0.15153   0.23741   0.00000  Uiso   1.00
N230   N     0.78409   0.46734   0.30545   0.00000  Uiso   1.00
C231   C     0.31020   0.36738   0.41589   0.00000  Uiso   1.00
C232   C     0.37332   0.35759   0.45038   0.00000  Uiso   1.00
C233   C     0.37937   0.37615   0.50832   0.00000  Uiso   1.00
C234   C     0.44132   0.36291   0.53192   0.00000  Uiso   1.00
C235   C     0.53113   0.35244   0.59052   0.00000  Uiso   1.00
C236   C     0.32494   0.44719   0.36833   0.00000  Uiso   1.00
C237   C     0.29031   0.54108   0.35728   0.00000  Uiso   1.00
C238   C     0.31153   0.60325   0.31181   0.00000  Uiso   1.00
C239   C     0.32620   0.73185   0.24299   0.00000  Uiso   1.00
C240   C     0.30038   0.25862   0.38709   0.00000  Uiso   1.00
C241   C     0.24508   0.19397   0.39180   0.00000  Uiso   1.00
C242   C     0.24562   0.09739   0.36211   0.00000  Uiso   1.00
C243   C     0.22215   0.93321   0.32242   0.00000  Uiso   1.00
C244   C     0.40947   0.31085   0.35478   0.00000  Uiso   1.00
C245   C     0.42724   0.32689   0.41718   0.00000  Uiso   1.00
C246   C     0.48920   0.31361   0.44071   0.00000  Uiso   1.00
C247   C     0.49534   0.33215   0.49867   0.00000  Uiso   1.00
C248   C     0.37886   0.41649   0.33513   0.00000  Uiso   1.00
C249   C     0.40014   0.47854   0.28967   0.00000  Uiso   1.00
C250   C     0.36555   0.57250   0.27855   0.00000  Uiso   1.00
C251   C     0.35430   0.22792   0.35389   0.00000  Uiso   1.00
C252   C     0.35492   0.13143   0.32419   0.00000  Uiso   1.00
C253   C     0.29964   0.06664   0.32885   0.00000  Uiso   1.00
H254   H     0.26822   0.39128   0.44173   0.00000  Uiso   1.00
H255   H     0.33763   0.39992   0.53399   0.00000  Uiso   1.00
H256   H     0.24858   0.56481   0.38297   0.00000  Uiso   1.00
H257   H     0.20337   0.21775   0.41749   0.00000  Uiso   1.00
H258   H     0.43836   0.39599   0.62164   0.00000  Uiso   1.00
H259   H     0.25058   0.74365   0.30319   0.00000  Uiso   1.00
H260   H     0.15523   0.01182   0.37597   0.00000  Uiso   1.00
H261   H     0.45145   0.28695   0.32893   0.00000  Uiso   1.00
H262   H     0.53092   0.28985   0.41501   0.00000  Uiso   1.00
H263   H     0.44186   0.45475   0.26399   0.00000  Uiso   1.00
H264   H     0.39665   0.10769   0.29850   0.00000  Uiso   1.00
H265   H     0.59524   0.30667   0.52507   0.00000  Uiso   1.00
H266   H     0.40746   0.65433   0.20661   0.00000  Uiso   1.00
H267   H     0.31211   0.92249   0.27940   0.00000  Uiso   1.00
O268   O     0.56578   0.35516   0.63200   0.00000  Uiso   1.00
O269   O     0.31940   0.81127   0.21421   0.00000  Uiso   1.00
O270   O     0.19431   0.85112   0.30970   0.00000  Uiso   1.00
N271   N     0.46438   0.37455   0.58710   0.00000  Uiso   1.00
N272   N     0.28882   0.69960   0.28937   0.00000  Uiso   1.00
N273   N     0.19967   0.01541   0.35741   0.00000  Uiso   1.00
N274   N     0.54879   0.32648   0.53513   0.00000  Uiso   1.00
N275   N     0.37323   0.65153   0.23741   0.00000  Uiso   1.00
N276   N     0.28409   0.96734   0.30545   0.00000  Uiso   1.00
C277   C     0.18980   0.13262   0.91589   0.00000  Uiso   1.00
C278   C     0.12668   0.14241   0.95038   0.00000  Uiso   1.00
C279   C     0.12063   0.12385   0.00832   0.00000  Uiso   1.00
C280   C     0.05868   0.13709   0.03192   0.00000  Uiso   1.00
C281   C     0.96887   0.14756   0.09052   0.00000  Uiso   1.00
C282   C     0.17506   0.05281   0.86833   0.00000  Uiso   1.00
C283   C     0.20969   0.95892   0.85728   0.00000  Uiso   1.00
C284   C     0.18847   0.89675   0.81181   0.00000  Uiso   1.00
C285   C     0.17380   0.76815   0.74299   0.00000  Uiso   1.00
C286   C     0.19962   0.24138   0.88709   0.00000  Uiso   1.00
C287   C     0.25492   0.30603   0.89180   0.00000  Uiso   1.00
C288   C     0.25438   0.40261   0.86211   0.00000  Uiso   1.00
C289   C     0.27785   0.56679   0.82242   0.00000  Uiso   1.00
C290   C     0.09053   0.18915   0.85478   0.00000  Uiso   1.00
C291   C     0.07276   0.17311   0.91718   0.00000  Uiso   1.00
C292   C     0.01080   0.18639   0.94071   0.00000  Uiso   1.00
C293   C     0.00466   0.16785   0.99867   0.00000  Uiso   1.00
C294   C     0.12114   0.08351   0.83513   0.00000  Uiso   1.00
C295   C     0.09986   0.02146   0.78967   0.00000  Uiso   1.00
C296   C     0.13445   0.92750   0.77855   0.00000  Uiso   1.00
C297   C     0.14570   0.27208   0.85389   0.00000  Uiso   1.00
C298   C     0.14508   0.36857   0.82419   0.00000  Uiso   1.00
C299   C     0.20036   0.43336   0.82885   0.00000  Uiso   1.00
H300   H     0.23178   0.10872   0.94173   0.00000  Uiso   1.00
H301   H     0.16237   0.10008   0.03399   0.00000  Uiso   1.00
H302   H     0.25142   0.93519   0.88297   0.00000  Uiso   1.00
H303   H     0.29663   0.28225   0.91749   0.00000  Uiso   1.00
H304   H     0.06164   0.10401   0.12164   0.00000  Uiso   1.00
H305   H     0.24942   0.75635   0.80319   0.00000  Uiso   1.00
H306   H     0.34477   0.48818   0.87597   0.00000  Uiso   1.00
H307   H     0.04855   0.21305   0.82893   0.00000  Uiso   1.00
H308   H     0.96908   0.21015   0.91501   0.00000  Uiso   1.00
H309   H     0.05814   0.04525   0.76399   0.00000  Uiso   1.00
H310   H     0.10335   0.39231   0.79850   0.00000  Uiso   1.00
H311   H     0.90476   0.19333   0.02507   0.00000  Uiso   1.00
H312   H     0.09254   0.84567   0.70661   0.00000  Uiso   1.00
H313   H     0.18789   0.57751   0.77940   0.00000  Uiso   1.00
O314   O     0.93422   0.14484   0.13200   0.00000  Uiso   1.00
O315   O     0.18060   0.68873   0.71421   0.00000  Uiso   1.00
O316   O     0.30569   0.64888   0.80970   0.00000  Uiso   1.00
N317   N     0.03562   0.12545   0.08710   0.00000  Uiso   1.00
N318   N     0.21118   0.80040   0.78937   0.00000  Uiso   1.00
N319   N     0.30033   0.48459   0.85741   0.00000  Uiso   1.00
N320   N     0.95121   0.17352   0.03513   0.00000  Uiso   1.00
N321   N     0.12677   0.84847   0.73741   0.00000  Uiso   1.00
N322   N     0.21591   0.53266   0.80545   0.00000  Uiso   1.00
C323   C     0.68980   0.63262   0.91589   0.00000  Uiso   1.00
C324   C     0.62668   0.64241   0.95038   0.00000  Uiso   1.00
C325   C     0.62063   0.62385   0.00832   0.00000  Uiso   1.00
C326   C     0.55868   0.63709   0.03192   0.00000  Uiso   1.00
C327   C     0.46887   0.64756   0.09052   0.00000  Uiso   1.00
C328   C     0.67506   0.55281   0.86833   0.00000  Uiso   1.00
C329   C     0.70969   0.45892   0.85728   0.00000  Uiso   1.00
C330   C     0.68847   0.39675   0.81181   0.00000  Uiso   1.00
C331   C     0.67380   0.26815   0.74299   0.00000  Uiso   1.00
C332   C     0.69962   0.74138   0.88709   0.00000  Uiso   1.00
C333   C     0.75492   0.80603   0.89180   0.00000  Uiso   1.00
C334   C     0.75438   0.90261   0.86211   0.00000  Uiso   1.00
C335   C     0.77785   0.06679   0.82242   0.00000  Uiso   1.00
C336   C     0.59053   0.68915   0.85478   0.00000  Uiso   1.00
C337   C     0.57276   0.67311   0.91718   0.00000  Uiso   1.00
C338   C     0.51080   0.68639   0.94071   0.00000  Uiso   1.00
C339   C     0.50466   0.66785   0.99867   0.00000  Uiso   1.00
C340   C     0.62114   0.58351   0.83513   0.00000  Uiso   1.00
C341   C     0.59986   0.52146   0.78967   0.00000  Uiso   1.00
C342   C     0.63445   0.42750   0.77855   0.00000  Uiso   1.00
C343   C     0.64570   0.77208   0.85389   0.00000  Uiso   1.00
C344   C     0.64508   0.86857   0.82419   0.00000  Uiso   1.00
C345   C     0.70036   0.93336   0.82885   0.00000  Uiso   1.00
H346   H     0.73178   0.60872   0.94173   0.00000  Uiso   1.00
H347   H     0.66237   0.60008   0.03399   0.00000  Uiso   1.00
H348   H     0.75142   0.43519   0.88297   0.00000  Uiso   1.00
H349   H     0.79663   0.78225   0.91749   0.00000  Uiso   1.00
H350   H     0.56164   0.60401   0.12164   0.00000  Uiso   1.00
H351   H     0.74942   0.25635   0.80319   0.00000  Uiso   1.00
H352   H     0.84477   0.98818   0.87597   0.00000  Uiso   1.00
H353   H     0.54855   0.71305   0.82893   0.00000  Uiso   1.00
H354   H     0.46908   0.71015   0.91501   0.00000  Uiso   1.00
H355   H     0.55814   0.54525   0.76399   0.00000  Uiso   1.00
H356   H     0.60335   0.89231   0.79850   0.00000  Uiso   1.00
H357   H     0.40476   0.69333   0.02507   0.00000  Uiso   1.00
H358   H     0.59254   0.34567   0.70661   0.00000  Uiso   1.00
H359   H     0.68789   0.07751   0.77940   0.00000  Uiso   1.00
O360   O     0.43422   0.64484   0.13200   0.00000  Uiso   1.00
O361   O     0.68060   0.18873   0.71421   0.00000  Uiso   1.00
O362   O     0.80569   0.14888   0.80970   0.00000  Uiso   1.00
N363   N     0.53562   0.62545   0.08710   0.00000  Uiso   1.00
N364   N     0.71118   0.30040   0.78937   0.00000  Uiso   1.00
N365   N     0.80033   0.98459   0.85741   0.00000  Uiso   1.00
N366   N     0.45121   0.67352   0.03513   0.00000  Uiso   1.00
N367   N     0.62677   0.34847   0.73741   0.00000  Uiso   1.00
N368   N     0.71591   0.03266   0.80545   0.00000  Uiso   1.00
