data_job_01063
_audit_creation_date              2018-12-19
_audit_creation_method            'Materials Studio'
_symmetry_space_group_name_H-M    'P1'
_symmetry_Int_Tables_number       1
_symmetry_cell_setting            triclinic
loop_
_symmetry_equiv_pos_as_xyz
  x,y,z
_cell_length_a                    20.1147
_cell_length_b                    20.1147
_cell_length_c                    12.9406
_cell_angle_alpha                 90.0000
_cell_angle_beta                  90.0000
_cell_angle_gamma                 90.0000
loop_
_atom_site_label
_atom_site_type_symbol
_atom_site_fract_x
_atom_site_fract_y
_atom_site_fract_z
_atom_site_U_iso_or_equiv
_atom_site_adp_type
_atom_site_occupancy
C1     C     0.24325   0.73521   0.51901   0.00000  Uiso   1.00
C2     C     0.22298   0.80036   0.57037   0.00000  Uiso   1.00
C3     C     0.20651   0.80839   0.67375   0.00000  Uiso   1.00
C4     C     0.18932   0.87200   0.70570   0.00000  Uiso   1.00
C5     C     0.15791   0.96501   0.79594   0.00000  Uiso   1.00
C6     C     0.19493   0.72498   0.42961   0.00000  Uiso   1.00
C7     C     0.15488   0.66962   0.41464   0.00000  Uiso   1.00
C8     C     0.11410   0.66977   0.32809   0.00000  Uiso   1.00
C9     C     0.03918   0.64572   0.19975   0.00000  Uiso   1.00
C10    C     0.31099   0.74792   0.46993   0.00000  Uiso   1.00
C11    C     0.36853   0.71184   0.48886   0.00000  Uiso   1.00
C12    C     0.42545   0.73130   0.43623   0.00000  Uiso   1.00
C13    C     0.53073   0.74286   0.37052   0.00000  Uiso   1.00
C14    C     0.24202   0.83390   0.39189   0.00000  Uiso   1.00
C15    C     0.22231   0.85397   0.50131   0.00000  Uiso   1.00
C16    C     0.20515   0.91758   0.53311   0.00000  Uiso   1.00
C17    C     0.18865   0.92571   0.63653   0.00000  Uiso   1.00
C18    C     0.19426   0.77858   0.36056   0.00000  Uiso   1.00
C19    C     0.15352   0.77881   0.27400   0.00000  Uiso   1.00
C20    C     0.11343   0.72347   0.25891   0.00000  Uiso   1.00
C21    C     0.31032   0.80152   0.40089   0.00000  Uiso   1.00
C22    C     0.36717   0.82104   0.34822   0.00000  Uiso   1.00
C23    C     0.42478   0.78500   0.36706   0.00000  Uiso   1.00
H24    H     0.24377   0.69347   0.57276   0.00000  Uiso   1.00
H25    H     0.20702   0.76689   0.72716   0.00000  Uiso   1.00
H26    H     0.15542   0.62814   0.46808   0.00000  Uiso   1.00
H27    H     0.36902   0.67036   0.54229   0.00000  Uiso   1.00
H28    H     0.16597   0.87193   0.86789   0.00000  Uiso   1.00
H29    H     0.05717   0.57935   0.32159   0.00000  Uiso   1.00
H30    H     0.50760   0.66838   0.47807   0.00000  Uiso   1.00
H31    H     0.24150   0.87564   0.33813   0.00000  Uiso   1.00
H32    H     0.20463   0.95906   0.47966   0.00000  Uiso   1.00
H33    H     0.15302   0.82030   0.22058   0.00000  Uiso   1.00
H34    H     0.36663   0.86252   0.29479   0.00000  Uiso   1.00
H35    H     0.16403   0.02790   0.66701   0.00000  Uiso   1.00
H36    H     0.05523   0.73532   0.12071   0.00000  Uiso   1.00
H37    H     0.50566   0.82434   0.27719   0.00000  Uiso   1.00
O38    O     0.14077   0.00150   0.86478   0.00000  Uiso   1.00
O39    O     0.99804   0.61764   0.14805   0.00000  Uiso   1.00
O40    O     0.58899   0.73444   0.35335   0.00000  Uiso   1.00
N41    N     0.17059   0.89719   0.80119   0.00000  Uiso   1.00
N42    N     0.06886   0.62365   0.29045   0.00000  Uiso   1.00
N43    N     0.48997   0.70687   0.43672   0.00000  Uiso   1.00
N44    N     0.16954   0.98112   0.69310   0.00000  Uiso   1.00
N45    N     0.06781   0.70758   0.18235   0.00000  Uiso   1.00
N46    N     0.48892   0.79080   0.32863   0.00000  Uiso   1.00
C47    C     0.74325   0.23521   0.01901   0.00000  Uiso   1.00
C48    C     0.72298   0.30036   0.07037   0.00000  Uiso   1.00
C49    C     0.70651   0.30839   0.17375   0.00000  Uiso   1.00
C50    C     0.68932   0.37200   0.20570   0.00000  Uiso   1.00
C51    C     0.65791   0.46501   0.29594   0.00000  Uiso   1.00
C52    C     0.69493   0.22498   0.92961   0.00000  Uiso   1.00
C53    C     0.65488   0.16962   0.91464   0.00000  Uiso   1.00
C54    C     0.61410   0.16977   0.82809   0.00000  Uiso   1.00
C55    C     0.53918   0.14572   0.69975   0.00000  Uiso   1.00
C56    C     0.81099   0.24792   0.96993   0.00000  Uiso   1.00
C57    C     0.86853   0.21184   0.98886   0.00000  Uiso   1.00
C58    C     0.92545   0.23130   0.93623   0.00000  Uiso   1.00
C59    C     0.03073   0.24286   0.87052   0.00000  Uiso   1.00
C60    C     0.74202   0.33390   0.89189   0.00000  Uiso   1.00
C61    C     0.72231   0.35397   0.00131   0.00000  Uiso   1.00
C62    C     0.70515   0.41758   0.03311   0.00000  Uiso   1.00
C63    C     0.68865   0.42571   0.13653   0.00000  Uiso   1.00
C64    C     0.69426   0.27858   0.86056   0.00000  Uiso   1.00
C65    C     0.65352   0.27881   0.77400   0.00000  Uiso   1.00
C66    C     0.61343   0.22347   0.75891   0.00000  Uiso   1.00
C67    C     0.81032   0.30152   0.90089   0.00000  Uiso   1.00
C68    C     0.86717   0.32104   0.84822   0.00000  Uiso   1.00
C69    C     0.92478   0.28500   0.86706   0.00000  Uiso   1.00
H70    H     0.74377   0.19347   0.07276   0.00000  Uiso   1.00
H71    H     0.70702   0.26689   0.22716   0.00000  Uiso   1.00
H72    H     0.65542   0.12814   0.96808   0.00000  Uiso   1.00
H73    H     0.86902   0.17036   0.04229   0.00000  Uiso   1.00
H74    H     0.66597   0.37193   0.36789   0.00000  Uiso   1.00
H75    H     0.55717   0.07935   0.82159   0.00000  Uiso   1.00
H76    H     0.00760   0.16838   0.97807   0.00000  Uiso   1.00
H77    H     0.74150   0.37564   0.83813   0.00000  Uiso   1.00
H78    H     0.70463   0.45906   0.97966   0.00000  Uiso   1.00
H79    H     0.65302   0.32030   0.72058   0.00000  Uiso   1.00
H80    H     0.86663   0.36252   0.79479   0.00000  Uiso   1.00
H81    H     0.66403   0.52790   0.16701   0.00000  Uiso   1.00
H82    H     0.55523   0.23532   0.62071   0.00000  Uiso   1.00
H83    H     0.00566   0.32434   0.77719   0.00000  Uiso   1.00
O84    O     0.64077   0.50150   0.36478   0.00000  Uiso   1.00
O85    O     0.49804   0.11764   0.64805   0.00000  Uiso   1.00
O86    O     0.08899   0.23444   0.85335   0.00000  Uiso   1.00
N87    N     0.67059   0.39719   0.30119   0.00000  Uiso   1.00
N88    N     0.56886   0.12365   0.79045   0.00000  Uiso   1.00
N89    N     0.98997   0.20687   0.93672   0.00000  Uiso   1.00
N90    N     0.66954   0.48112   0.19310   0.00000  Uiso   1.00
N91    N     0.56781   0.20758   0.68235   0.00000  Uiso   1.00
N92    N     0.98892   0.29080   0.82863   0.00000  Uiso   1.00
C93    C     0.75675   0.26479   0.51901   0.00000  Uiso   1.00
C94    C     0.77702   0.19964   0.57037   0.00000  Uiso   1.00
C95    C     0.79349   0.19161   0.67375   0.00000  Uiso   1.00
C96    C     0.81068   0.12800   0.70570   0.00000  Uiso   1.00
C97    C     0.84209   0.03499   0.79594   0.00000  Uiso   1.00
C98    C     0.80507   0.27502   0.42961   0.00000  Uiso   1.00
C99    C     0.84512   0.33038   0.41464   0.00000  Uiso   1.00
C100   C     0.88590   0.33023   0.32809   0.00000  Uiso   1.00
C101   C     0.96082   0.35428   0.19975   0.00000  Uiso   1.00
C102   C     0.68901   0.25208   0.46993   0.00000  Uiso   1.00
C103   C     0.63147   0.28816   0.48886   0.00000  Uiso   1.00
C104   C     0.57455   0.26870   0.43623   0.00000  Uiso   1.00
C105   C     0.46927   0.25714   0.37052   0.00000  Uiso   1.00
C106   C     0.75798   0.16610   0.39189   0.00000  Uiso   1.00
C107   C     0.77769   0.14603   0.50131   0.00000  Uiso   1.00
C108   C     0.79485   0.08242   0.53311   0.00000  Uiso   1.00
C109   C     0.81135   0.07429   0.63653   0.00000  Uiso   1.00
C110   C     0.80574   0.22142   0.36056   0.00000  Uiso   1.00
C111   C     0.84648   0.22119   0.27400   0.00000  Uiso   1.00
C112   C     0.88657   0.27653   0.25891   0.00000  Uiso   1.00
C113   C     0.68968   0.19848   0.40089   0.00000  Uiso   1.00
C114   C     0.63283   0.17896   0.34822   0.00000  Uiso   1.00
C115   C     0.57522   0.21500   0.36706   0.00000  Uiso   1.00
H116   H     0.75623   0.30653   0.57276   0.00000  Uiso   1.00
H117   H     0.79298   0.23311   0.72716   0.00000  Uiso   1.00
H118   H     0.84458   0.37186   0.46808   0.00000  Uiso   1.00
H119   H     0.63098   0.32964   0.54229   0.00000  Uiso   1.00
H120   H     0.83403   0.12807   0.86789   0.00000  Uiso   1.00
H121   H     0.94283   0.42065   0.32159   0.00000  Uiso   1.00
H122   H     0.49240   0.33162   0.47807   0.00000  Uiso   1.00
H123   H     0.75850   0.12436   0.33813   0.00000  Uiso   1.00
H124   H     0.79537   0.04094   0.47966   0.00000  Uiso   1.00
H125   H     0.84698   0.17970   0.22058   0.00000  Uiso   1.00
H126   H     0.63337   0.13748   0.29479   0.00000  Uiso   1.00
H127   H     0.83597   0.97210   0.66701   0.00000  Uiso   1.00
H128   H     0.94477   0.26468   0.12071   0.00000  Uiso   1.00
H129   H     0.49434   0.17566   0.27719   0.00000  Uiso   1.00
O130   O     0.85923   0.99850   0.86478   0.00000  Uiso   1.00
O131   O     0.00196   0.38236   0.14805   0.00000  Uiso   1.00
O132   O     0.41101   0.26556   0.35335   0.00000  Uiso   1.00
N133   N     0.82941   0.10281   0.80119   0.00000  Uiso   1.00
N134   N     0.93114   0.37635   0.29045   0.00000  Uiso   1.00
N135   N     0.51003   0.29313   0.43672   0.00000  Uiso   1.00
N136   N     0.83046   0.01888   0.69310   0.00000  Uiso   1.00
N137   N     0.93219   0.29242   0.18235   0.00000  Uiso   1.00
N138   N     0.51108   0.20920   0.32863   0.00000  Uiso   1.00
C139   C     0.25675   0.76479   0.01901   0.00000  Uiso   1.00
C140   C     0.27702   0.69964   0.07037   0.00000  Uiso   1.00
C141   C     0.29349   0.69161   0.17375   0.00000  Uiso   1.00
C142   C     0.31068   0.62800   0.20570   0.00000  Uiso   1.00
C143   C     0.34209   0.53499   0.29594   0.00000  Uiso   1.00
C144   C     0.30507   0.77502   0.92961   0.00000  Uiso   1.00
C145   C     0.34512   0.83038   0.91464   0.00000  Uiso   1.00
C146   C     0.38590   0.83023   0.82809   0.00000  Uiso   1.00
C147   C     0.46082   0.85428   0.69975   0.00000  Uiso   1.00
C148   C     0.18901   0.75208   0.96993   0.00000  Uiso   1.00
C149   C     0.13147   0.78816   0.98886   0.00000  Uiso   1.00
C150   C     0.07455   0.76870   0.93623   0.00000  Uiso   1.00
C151   C     0.96927   0.75714   0.87052   0.00000  Uiso   1.00
C152   C     0.25798   0.66610   0.89189   0.00000  Uiso   1.00
C153   C     0.27769   0.64603   0.00131   0.00000  Uiso   1.00
C154   C     0.29485   0.58242   0.03311   0.00000  Uiso   1.00
C155   C     0.31135   0.57429   0.13653   0.00000  Uiso   1.00
C156   C     0.30574   0.72142   0.86056   0.00000  Uiso   1.00
C157   C     0.34648   0.72119   0.77400   0.00000  Uiso   1.00
C158   C     0.38657   0.77653   0.75891   0.00000  Uiso   1.00
C159   C     0.18968   0.69848   0.90089   0.00000  Uiso   1.00
C160   C     0.13283   0.67896   0.84822   0.00000  Uiso   1.00
C161   C     0.07522   0.71500   0.86706   0.00000  Uiso   1.00
H162   H     0.25623   0.80653   0.07276   0.00000  Uiso   1.00
H163   H     0.29298   0.73311   0.22716   0.00000  Uiso   1.00
H164   H     0.34458   0.87186   0.96808   0.00000  Uiso   1.00
H165   H     0.13098   0.82964   0.04229   0.00000  Uiso   1.00
H166   H     0.33403   0.62807   0.36789   0.00000  Uiso   1.00
H167   H     0.44283   0.92065   0.82159   0.00000  Uiso   1.00
H168   H     0.99240   0.83162   0.97807   0.00000  Uiso   1.00
H169   H     0.25850   0.62436   0.83813   0.00000  Uiso   1.00
H170   H     0.29537   0.54094   0.97966   0.00000  Uiso   1.00
H171   H     0.34698   0.67970   0.72058   0.00000  Uiso   1.00
H172   H     0.13337   0.63748   0.79479   0.00000  Uiso   1.00
H173   H     0.33597   0.47210   0.16701   0.00000  Uiso   1.00
H174   H     0.44477   0.76468   0.62071   0.00000  Uiso   1.00
H175   H     0.99434   0.67566   0.77719   0.00000  Uiso   1.00
O176   O     0.35923   0.49850   0.36478   0.00000  Uiso   1.00
O177   O     0.50196   0.88236   0.64805   0.00000  Uiso   1.00
O178   O     0.91101   0.76556   0.85335   0.00000  Uiso   1.00
N179   N     0.32941   0.60281   0.30119   0.00000  Uiso   1.00
N180   N     0.43114   0.87635   0.79045   0.00000  Uiso   1.00
N181   N     0.01003   0.79313   0.93672   0.00000  Uiso   1.00
N182   N     0.33046   0.51888   0.19310   0.00000  Uiso   1.00
N183   N     0.43219   0.79242   0.68235   0.00000  Uiso   1.00
N184   N     0.01108   0.70920   0.82863   0.00000  Uiso   1.00
C185   C     0.73521   0.75675   0.48099   0.00000  Uiso   1.00
C186   C     0.80036   0.77702   0.42963   0.00000  Uiso   1.00
C187   C     0.80839   0.79349   0.32625   0.00000  Uiso   1.00
C188   C     0.87200   0.81068   0.29430   0.00000  Uiso   1.00
C189   C     0.96501   0.84209   0.20406   0.00000  Uiso   1.00
C190   C     0.72498   0.80507   0.57039   0.00000  Uiso   1.00
C191   C     0.66962   0.84512   0.58536   0.00000  Uiso   1.00
C192   C     0.66977   0.88590   0.67191   0.00000  Uiso   1.00
C193   C     0.64572   0.96082   0.80025   0.00000  Uiso   1.00
C194   C     0.74792   0.68901   0.53007   0.00000  Uiso   1.00
C195   C     0.71184   0.63147   0.51114   0.00000  Uiso   1.00
C196   C     0.73130   0.57455   0.56377   0.00000  Uiso   1.00
C197   C     0.74286   0.46927   0.62948   0.00000  Uiso   1.00
C198   C     0.83390   0.75798   0.60811   0.00000  Uiso   1.00
C199   C     0.85397   0.77769   0.49869   0.00000  Uiso   1.00
C200   C     0.91758   0.79485   0.46689   0.00000  Uiso   1.00
C201   C     0.92571   0.81135   0.36347   0.00000  Uiso   1.00
C202   C     0.77858   0.80574   0.63944   0.00000  Uiso   1.00
C203   C     0.77881   0.84648   0.72600   0.00000  Uiso   1.00
C204   C     0.72347   0.88657   0.74109   0.00000  Uiso   1.00
C205   C     0.80152   0.68968   0.59911   0.00000  Uiso   1.00
C206   C     0.82104   0.63283   0.65178   0.00000  Uiso   1.00
C207   C     0.78500   0.57522   0.63294   0.00000  Uiso   1.00
H208   H     0.69347   0.75623   0.42724   0.00000  Uiso   1.00
H209   H     0.76689   0.79298   0.27284   0.00000  Uiso   1.00
H210   H     0.62814   0.84458   0.53192   0.00000  Uiso   1.00
H211   H     0.67036   0.63098   0.45771   0.00000  Uiso   1.00
H212   H     0.87193   0.83403   0.13211   0.00000  Uiso   1.00
H213   H     0.57935   0.94283   0.67841   0.00000  Uiso   1.00
H214   H     0.66838   0.49240   0.52193   0.00000  Uiso   1.00
H215   H     0.87564   0.75850   0.66187   0.00000  Uiso   1.00
H216   H     0.95906   0.79537   0.52034   0.00000  Uiso   1.00
H217   H     0.82030   0.84698   0.77942   0.00000  Uiso   1.00
H218   H     0.86252   0.63337   0.70521   0.00000  Uiso   1.00
H219   H     0.02790   0.83597   0.33299   0.00000  Uiso   1.00
H220   H     0.73532   0.94477   0.87929   0.00000  Uiso   1.00
H221   H     0.82434   0.49434   0.72281   0.00000  Uiso   1.00
O222   O     0.00150   0.85923   0.13522   0.00000  Uiso   1.00
O223   O     0.61764   0.00196   0.85195   0.00000  Uiso   1.00
O224   O     0.73444   0.41101   0.64665   0.00000  Uiso   1.00
N225   N     0.89719   0.82941   0.19881   0.00000  Uiso   1.00
N226   N     0.62365   0.93114   0.70955   0.00000  Uiso   1.00
N227   N     0.70687   0.51003   0.56328   0.00000  Uiso   1.00
N228   N     0.98112   0.83046   0.30690   0.00000  Uiso   1.00
N229   N     0.70758   0.93219   0.81765   0.00000  Uiso   1.00
N230   N     0.79080   0.51108   0.67137   0.00000  Uiso   1.00
C231   C     0.23521   0.25675   0.98099   0.00000  Uiso   1.00
C232   C     0.30036   0.27702   0.92963   0.00000  Uiso   1.00
C233   C     0.30839   0.29349   0.82625   0.00000  Uiso   1.00
C234   C     0.37200   0.31068   0.79430   0.00000  Uiso   1.00
C235   C     0.46501   0.34209   0.70406   0.00000  Uiso   1.00
C236   C     0.22498   0.30507   0.07039   0.00000  Uiso   1.00
C237   C     0.16962   0.34512   0.08536   0.00000  Uiso   1.00
C238   C     0.16977   0.38590   0.17191   0.00000  Uiso   1.00
C239   C     0.14572   0.46082   0.30025   0.00000  Uiso   1.00
C240   C     0.24792   0.18901   0.03007   0.00000  Uiso   1.00
C241   C     0.21184   0.13147   0.01114   0.00000  Uiso   1.00
C242   C     0.23130   0.07455   0.06377   0.00000  Uiso   1.00
C243   C     0.24286   0.96927   0.12948   0.00000  Uiso   1.00
C244   C     0.33390   0.25798   0.10811   0.00000  Uiso   1.00
C245   C     0.35397   0.27769   0.99869   0.00000  Uiso   1.00
C246   C     0.41758   0.29485   0.96689   0.00000  Uiso   1.00
C247   C     0.42571   0.31135   0.86347   0.00000  Uiso   1.00
C248   C     0.27858   0.30574   0.13944   0.00000  Uiso   1.00
C249   C     0.27881   0.34648   0.22600   0.00000  Uiso   1.00
C250   C     0.22347   0.38657   0.24109   0.00000  Uiso   1.00
C251   C     0.30152   0.18968   0.09911   0.00000  Uiso   1.00
C252   C     0.32104   0.13283   0.15178   0.00000  Uiso   1.00
C253   C     0.28500   0.07522   0.13294   0.00000  Uiso   1.00
H254   H     0.19347   0.25623   0.92724   0.00000  Uiso   1.00
H255   H     0.26689   0.29298   0.77284   0.00000  Uiso   1.00
H256   H     0.12814   0.34458   0.03192   0.00000  Uiso   1.00
H257   H     0.17036   0.13098   0.95771   0.00000  Uiso   1.00
H258   H     0.37193   0.33403   0.63211   0.00000  Uiso   1.00
H259   H     0.07935   0.44283   0.17841   0.00000  Uiso   1.00
H260   H     0.16838   0.99240   0.02193   0.00000  Uiso   1.00
H261   H     0.37564   0.25850   0.16187   0.00000  Uiso   1.00
H262   H     0.45906   0.29537   0.02034   0.00000  Uiso   1.00
H263   H     0.32030   0.34698   0.27942   0.00000  Uiso   1.00
H264   H     0.36252   0.13337   0.20521   0.00000  Uiso   1.00
H265   H     0.52790   0.33597   0.83299   0.00000  Uiso   1.00
H266   H     0.23532   0.44477   0.37929   0.00000  Uiso   1.00
H267   H     0.32434   0.99434   0.22281   0.00000  Uiso   1.00
O268   O     0.50150   0.35923   0.63522   0.00000  Uiso   1.00
O269   O     0.11764   0.50196   0.35195   0.00000  Uiso   1.00
O270   O     0.23444   0.91101   0.14665   0.00000  Uiso   1.00
N271   N     0.39719   0.32941   0.69881   0.00000  Uiso   1.00
N272   N     0.12365   0.43114   0.20955   0.00000  Uiso   1.00
N273   N     0.20687   0.01003   0.06328   0.00000  Uiso   1.00
N274   N     0.48112   0.33046   0.80690   0.00000  Uiso   1.00
N275   N     0.20758   0.43219   0.31765   0.00000  Uiso   1.00
N276   N     0.29080   0.01108   0.17137   0.00000  Uiso   1.00
C277   C     0.26479   0.24325   0.48099   0.00000  Uiso   1.00
C278   C     0.19964   0.22298   0.42963   0.00000  Uiso   1.00
C279   C     0.19161   0.20651   0.32625   0.00000  Uiso   1.00
C280   C     0.12800   0.18932   0.29430   0.00000  Uiso   1.00
C281   C     0.03499   0.15791   0.20406   0.00000  Uiso   1.00
C282   C     0.27502   0.19493   0.57039   0.00000  Uiso   1.00
C283   C     0.33038   0.15488   0.58536   0.00000  Uiso   1.00
C284   C     0.33023   0.11410   0.67191   0.00000  Uiso   1.00
C285   C     0.35428   0.03918   0.80025   0.00000  Uiso   1.00
C286   C     0.25208   0.31099   0.53007   0.00000  Uiso   1.00
C287   C     0.28816   0.36853   0.51114   0.00000  Uiso   1.00
C288   C     0.26870   0.42545   0.56377   0.00000  Uiso   1.00
C289   C     0.25714   0.53073   0.62948   0.00000  Uiso   1.00
C290   C     0.16610   0.24202   0.60811   0.00000  Uiso   1.00
C291   C     0.14603   0.22231   0.49869   0.00000  Uiso   1.00
C292   C     0.08242   0.20515   0.46689   0.00000  Uiso   1.00
C293   C     0.07429   0.18865   0.36347   0.00000  Uiso   1.00
C294   C     0.22142   0.19426   0.63944   0.00000  Uiso   1.00
C295   C     0.22119   0.15352   0.72600   0.00000  Uiso   1.00
C296   C     0.27653   0.11343   0.74109   0.00000  Uiso   1.00
C297   C     0.19848   0.31032   0.59911   0.00000  Uiso   1.00
C298   C     0.17896   0.36717   0.65178   0.00000  Uiso   1.00
C299   C     0.21500   0.42478   0.63294   0.00000  Uiso   1.00
H300   H     0.30653   0.24377   0.42724   0.00000  Uiso   1.00
H301   H     0.23311   0.20702   0.27284   0.00000  Uiso   1.00
H302   H     0.37186   0.15542   0.53192   0.00000  Uiso   1.00
H303   H     0.32964   0.36902   0.45771   0.00000  Uiso   1.00
H304   H     0.12807   0.16597   0.13211   0.00000  Uiso   1.00
H305   H     0.42065   0.05717   0.67841   0.00000  Uiso   1.00
H306   H     0.33162   0.50760   0.52193   0.00000  Uiso   1.00
H307   H     0.12436   0.24150   0.66187   0.00000  Uiso   1.00
H308   H     0.04094   0.20463   0.52034   0.00000  Uiso   1.00
H309   H     0.17970   0.15302   0.77942   0.00000  Uiso   1.00
H310   H     0.13748   0.36663   0.70521   0.00000  Uiso   1.00
H311   H     0.97210   0.16403   0.33299   0.00000  Uiso   1.00
H312   H     0.26468   0.05523   0.87929   0.00000  Uiso   1.00
H313   H     0.17566   0.50566   0.72281   0.00000  Uiso   1.00
O314   O     0.99850   0.14077   0.13522   0.00000  Uiso   1.00
O315   O     0.38236   0.99804   0.85195   0.00000  Uiso   1.00
O316   O     0.26556   0.58899   0.64665   0.00000  Uiso   1.00
N317   N     0.10281   0.17059   0.19881   0.00000  Uiso   1.00
N318   N     0.37635   0.06886   0.70955   0.00000  Uiso   1.00
N319   N     0.29313   0.48997   0.56328   0.00000  Uiso   1.00
N320   N     0.01888   0.16954   0.30690   0.00000  Uiso   1.00
N321   N     0.29242   0.06781   0.81765   0.00000  Uiso   1.00
N322   N     0.20920   0.48892   0.67137   0.00000  Uiso   1.00
C323   C     0.76479   0.74325   0.98099   0.00000  Uiso   1.00
C324   C     0.69964   0.72298   0.92963   0.00000  Uiso   1.00
C325   C     0.69161   0.70651   0.82625   0.00000  Uiso   1.00
C326   C     0.62800   0.68932   0.79430   0.00000  Uiso   1.00
C327   C     0.53499   0.65791   0.70406   0.00000  Uiso   1.00
C328   C     0.77502   0.69493   0.07039   0.00000  Uiso   1.00
C329   C     0.83038   0.65488   0.08536   0.00000  Uiso   1.00
C330   C     0.83023   0.61410   0.17191   0.00000  Uiso   1.00
C331   C     0.85428   0.53918   0.30025   0.00000  Uiso   1.00
C332   C     0.75208   0.81099   0.03007   0.00000  Uiso   1.00
C333   C     0.78816   0.86853   0.01114   0.00000  Uiso   1.00
C334   C     0.76870   0.92545   0.06377   0.00000  Uiso   1.00
C335   C     0.75714   0.03073   0.12948   0.00000  Uiso   1.00
C336   C     0.66610   0.74202   0.10811   0.00000  Uiso   1.00
C337   C     0.64603   0.72231   0.99869   0.00000  Uiso   1.00
C338   C     0.58242   0.70515   0.96689   0.00000  Uiso   1.00
C339   C     0.57429   0.68865   0.86347   0.00000  Uiso   1.00
C340   C     0.72142   0.69426   0.13944   0.00000  Uiso   1.00
C341   C     0.72119   0.65352   0.22600   0.00000  Uiso   1.00
C342   C     0.77653   0.61343   0.24109   0.00000  Uiso   1.00
C343   C     0.69848   0.81032   0.09911   0.00000  Uiso   1.00
C344   C     0.67896   0.86717   0.15178   0.00000  Uiso   1.00
C345   C     0.71500   0.92478   0.13294   0.00000  Uiso   1.00
H346   H     0.80653   0.74377   0.92724   0.00000  Uiso   1.00
H347   H     0.73311   0.70702   0.77284   0.00000  Uiso   1.00
H348   H     0.87186   0.65542   0.03192   0.00000  Uiso   1.00
H349   H     0.82964   0.86902   0.95771   0.00000  Uiso   1.00
H350   H     0.62807   0.66597   0.63211   0.00000  Uiso   1.00
H351   H     0.92065   0.55717   0.17841   0.00000  Uiso   1.00
H352   H     0.83162   0.00760   0.02193   0.00000  Uiso   1.00
H353   H     0.62436   0.74150   0.16187   0.00000  Uiso   1.00
H354   H     0.54094   0.70463   0.02034   0.00000  Uiso   1.00
H355   H     0.67970   0.65302   0.27942   0.00000  Uiso   1.00
H356   H     0.63748   0.86663   0.20521   0.00000  Uiso   1.00
H357   H     0.47210   0.66403   0.83299   0.00000  Uiso   1.00
H358   H     0.76468   0.55523   0.37929   0.00000  Uiso   1.00
H359   H     0.67566   0.00566   0.22281   0.00000  Uiso   1.00
O360   O     0.49850   0.64077   0.63522   0.00000  Uiso   1.00
O361   O     0.88236   0.49804   0.35195   0.00000  Uiso   1.00
O362   O     0.76556   0.08899   0.14665   0.00000  Uiso   1.00
N363   N     0.60281   0.67059   0.69881   0.00000  Uiso   1.00
N364   N     0.87635   0.56886   0.20955   0.00000  Uiso   1.00
N365   N     0.79313   0.98997   0.06328   0.00000  Uiso   1.00
N366   N     0.51888   0.66954   0.80690   0.00000  Uiso   1.00
N367   N     0.79242   0.56781   0.31765   0.00000  Uiso   1.00
N368   N     0.70920   0.98892   0.17137   0.00000  Uiso   1.00
