data_job_02462
_audit_creation_date              2018-12-19
_audit_creation_method            'Materials Studio'
_symmetry_space_group_name_H-M    'P1'
_symmetry_Int_Tables_number       1
_symmetry_cell_setting            triclinic
loop_
_symmetry_equiv_pos_as_xyz
  x,y,z
_cell_length_a                    11.2782
_cell_length_b                    11.2782
_cell_length_c                    34.8407
_cell_angle_alpha                 90.0000
_cell_angle_beta                  90.0000
_cell_angle_gamma                 120.0000
loop_
_atom_site_label
_atom_site_type_symbol
_atom_site_fract_x
_atom_site_fract_y
_atom_site_fract_z
_atom_site_U_iso_or_equiv
_atom_site_adp_type
_atom_site_occupancy
C1     C     0.49354   0.56138   0.43032   0.00000  Uiso   1.00
C2     C     0.61779   0.62587   0.45681   0.00000  Uiso   1.00
C3     C     0.61904   0.66715   0.49440   0.00000  Uiso   1.00
C4     C     0.74300   0.72390   0.51383   0.00000  Uiso   1.00
C5     C     0.91794   0.82185   0.55763   0.00000  Uiso   1.00
C6     C     0.53426   0.65184   0.39468   0.00000  Uiso   1.00
C7     C     0.46526   0.71494   0.38003   0.00000  Uiso   1.00
C8     C     0.51891   0.79354   0.34715   0.00000  Uiso   1.00
C9     C     0.56411   0.93172   0.29447   0.00000  Uiso   1.00
C10    C     0.47791   0.42519   0.41730   0.00000  Uiso   1.00
C11    C     0.36152   0.29771   0.42166   0.00000  Uiso   1.00
C12    C     0.36770   0.18547   0.40782   0.00000  Uiso   1.00
C13    C     0.32541   0.97174   0.39027   0.00000  Uiso   1.00
C14    C     0.71147   0.58875   0.39797   0.00000  Uiso   1.00
C15    C     0.73616   0.64075   0.43924   0.00000  Uiso   1.00
C16    C     0.86015   0.69744   0.45862   0.00000  Uiso   1.00
C17    C     0.86158   0.73879   0.49623   0.00000  Uiso   1.00
C18    C     0.65263   0.66672   0.37711   0.00000  Uiso   1.00
C19    C     0.70638   0.74523   0.34424   0.00000  Uiso   1.00
C20    C     0.63749   0.80844   0.32954   0.00000  Uiso   1.00
C21    C     0.59628   0.44005   0.39973   0.00000  Uiso   1.00
C22    C     0.60264   0.32800   0.38588   0.00000  Uiso   1.00
C23    C     0.48629   0.20037   0.39022   0.00000  Uiso   1.00
H24    H     0.40138   0.54980   0.44399   0.00000  Uiso   1.00
H25    H     0.52741   0.65564   0.50799   0.00000  Uiso   1.00
H26    H     0.37366   0.70340   0.39363   0.00000  Uiso   1.00
H27    H     0.26994   0.28624   0.43526   0.00000  Uiso   1.00
H28    H     0.71935   0.77958   0.57118   0.00000  Uiso   1.00
H29    H     0.39513   0.88026   0.33004   0.00000  Uiso   1.00
H30    H     0.17640   0.00058   0.41783   0.00000  Uiso   1.00
H31    H     0.80363   0.60033   0.38429   0.00000  Uiso   1.00
H32    H     0.95174   0.70894   0.44501   0.00000  Uiso   1.00
H33    H     0.79798   0.75671   0.33065   0.00000  Uiso   1.00
H34    H     0.69426   0.33954   0.37228   0.00000  Uiso   1.00
H35    H     0.06376   0.82284   0.52007   0.00000  Uiso   1.00
H36    H     0.73953   0.92352   0.27892   0.00000  Uiso   1.00
H37    H     0.52081   0.04385   0.36672   0.00000  Uiso   1.00
O38    O     0.98174   0.87179   0.58664   0.00000  Uiso   1.00
O39    O     0.55635   0.00385   0.27027   0.00000  Uiso   1.00
O40    O     0.26939   0.84974   0.38545   0.00000  Uiso   1.00
N41    N     0.78008   0.77483   0.55082   0.00000  Uiso   1.00
N42    N     0.47696   0.86898   0.32537   0.00000  Uiso   1.00
N43    N     0.27246   0.04656   0.40744   0.00000  Uiso   1.00
N44    N     0.96540   0.79811   0.52332   0.00000  Uiso   1.00
N45    N     0.66228   0.89226   0.29787   0.00000  Uiso   1.00
N46    N     0.45778   0.06984   0.37993   0.00000  Uiso   1.00
C47    C     0.43862   0.93216   0.76365   0.00000  Uiso   1.00
C48    C     0.37413   0.99192   0.79014   0.00000  Uiso   1.00
C49    C     0.33285   0.95188   0.82774   0.00000  Uiso   1.00
C50    C     0.27610   0.01910   0.84716   0.00000  Uiso   1.00
C51    C     0.17815   0.09609   0.89097   0.00000  Uiso   1.00
C52    C     0.34816   0.88242   0.72801   0.00000  Uiso   1.00
C53    C     0.28506   0.75032   0.71336   0.00000  Uiso   1.00
C54    C     0.20646   0.72537   0.68048   0.00000  Uiso   1.00
C55    C     0.06828   0.63239   0.62780   0.00000  Uiso   1.00
C56    C     0.57481   0.05272   0.75063   0.00000  Uiso   1.00
C57    C     0.70229   0.06381   0.75500   0.00000  Uiso   1.00
C58    C     0.81453   0.18223   0.74116   0.00000  Uiso   1.00
C59    C     0.02826   0.35367   0.72360   0.00000  Uiso   1.00
C60    C     0.41125   0.12271   0.73130   0.00000  Uiso   1.00
C61    C     0.35925   0.09541   0.77257   0.00000  Uiso   1.00
C62    C     0.30256   0.16271   0.79195   0.00000  Uiso   1.00
C63    C     0.26121   0.12279   0.82956   0.00000  Uiso   1.00
C64    C     0.33328   0.98591   0.71044   0.00000  Uiso   1.00
C65    C     0.25477   0.96115   0.67757   0.00000  Uiso   1.00
C66    C     0.19156   0.82906   0.66288   0.00000  Uiso   1.00
C67    C     0.55995   0.15623   0.73306   0.00000  Uiso   1.00
C68    C     0.67200   0.27464   0.71921   0.00000  Uiso   1.00
C69    C     0.79963   0.28592   0.72355   0.00000  Uiso   1.00
H70    H     0.45020   0.85157   0.77733   0.00000  Uiso   1.00
H71    H     0.34436   0.87177   0.84132   0.00000  Uiso   1.00
H72    H     0.29660   0.67025   0.72696   0.00000  Uiso   1.00
H73    H     0.71376   0.98370   0.76859   0.00000  Uiso   1.00
H74    H     0.22042   0.93978   0.90452   0.00000  Uiso   1.00
H75    H     0.11974   0.51487   0.66337   0.00000  Uiso   1.00
H76    H     0.99942   0.17582   0.75116   0.00000  Uiso   1.00
H77    H     0.39967   0.20330   0.71762   0.00000  Uiso   1.00
H78    H     0.29106   0.24280   0.77834   0.00000  Uiso   1.00
H79    H     0.24329   0.04127   0.66398   0.00000  Uiso   1.00
H80    H     0.66046   0.35472   0.70562   0.00000  Uiso   1.00
H81    H     0.17716   0.24091   0.85340   0.00000  Uiso   1.00
H82    H     0.07648   0.81600   0.61226   0.00000  Uiso   1.00
H83    H     0.95615   0.47696   0.70005   0.00000  Uiso   1.00
O84    O     0.12821   0.10995   0.91998   0.00000  Uiso   1.00
O85    O     0.99615   0.55250   0.60360   0.00000  Uiso   1.00
O86    O     0.15026   0.41965   0.71878   0.00000  Uiso   1.00
N87    N     0.22517   0.00525   0.88416   0.00000  Uiso   1.00
N88    N     0.13102   0.60798   0.65871   0.00000  Uiso   1.00
N89    N     0.95344   0.22590   0.74077   0.00000  Uiso   1.00
N90    N     0.20189   0.16729   0.85665   0.00000  Uiso   1.00
N91    N     0.10774   0.77002   0.63120   0.00000  Uiso   1.00
N92    N     0.93016   0.38794   0.71327   0.00000  Uiso   1.00
C93    C     0.06784   0.50646   0.09698   0.00000  Uiso   1.00
C94    C     0.00808   0.38221   0.12348   0.00000  Uiso   1.00
C95    C     0.04812   0.38096   0.16107   0.00000  Uiso   1.00
C96    C     0.98090   0.25700   0.18050   0.00000  Uiso   1.00
C97    C     0.90391   0.08206   0.22430   0.00000  Uiso   1.00
C98    C     0.11758   0.46574   0.06134   0.00000  Uiso   1.00
C99    C     0.24968   0.53474   0.04669   0.00000  Uiso   1.00
C100   C     0.27463   0.48109   0.01381   0.00000  Uiso   1.00
C101   C     0.36761   0.43589   0.96113   0.00000  Uiso   1.00
C102   C     0.94728   0.52209   0.08397   0.00000  Uiso   1.00
C103   C     0.93619   0.63848   0.08833   0.00000  Uiso   1.00
C104   C     0.81777   0.63230   0.07449   0.00000  Uiso   1.00
C105   C     0.64633   0.67459   0.05694   0.00000  Uiso   1.00
C106   C     0.87729   0.28853   0.06464   0.00000  Uiso   1.00
C107   C     0.90459   0.26384   0.10590   0.00000  Uiso   1.00
C108   C     0.83729   0.13985   0.12528   0.00000  Uiso   1.00
C109   C     0.87721   0.13842   0.16290   0.00000  Uiso   1.00
C110   C     0.01409   0.34737   0.04377   0.00000  Uiso   1.00
C111   C     0.03885   0.29362   0.01091   0.00000  Uiso   1.00
C112   C     0.17094   0.36251   0.99621   0.00000  Uiso   1.00
C113   C     0.84377   0.40372   0.06640   0.00000  Uiso   1.00
C114   C     0.72536   0.39736   0.05254   0.00000  Uiso   1.00
C115   C     0.71408   0.51371   0.05689   0.00000  Uiso   1.00
H116   H     0.14843   0.59862   0.11066   0.00000  Uiso   1.00
H117   H     0.12823   0.47259   0.17465   0.00000  Uiso   1.00
H118   H     0.32975   0.62634   0.06029   0.00000  Uiso   1.00
H119   H     0.01630   0.73006   0.10193   0.00000  Uiso   1.00
H120   H     0.06022   0.28065   0.23785   0.00000  Uiso   1.00
H121   H     0.48513   0.60487   0.99671   0.00000  Uiso   1.00
H122   H     0.82418   0.82360   0.08450   0.00000  Uiso   1.00
H123   H     0.79670   0.19637   0.05096   0.00000  Uiso   1.00
H124   H     0.75720   0.04826   0.11168   0.00000  Uiso   1.00
H125   H     0.95873   0.20202   0.99732   0.00000  Uiso   1.00
H126   H     0.64528   0.30574   0.03895   0.00000  Uiso   1.00
H127   H     0.75909   0.93624   0.18674   0.00000  Uiso   1.00
H128   H     0.18400   0.26047   0.94559   0.00000  Uiso   1.00
H129   H     0.52304   0.47919   0.03338   0.00000  Uiso   1.00
O130   O     0.89005   0.01826   0.25331   0.00000  Uiso   1.00
O131   O     0.44750   0.44365   0.93693   0.00000  Uiso   1.00
O132   O     0.58035   0.73061   0.05212   0.00000  Uiso   1.00
N133   N     0.99475   0.21992   0.21749   0.00000  Uiso   1.00
N134   N     0.39202   0.52304   0.99204   0.00000  Uiso   1.00
N135   N     0.77410   0.72754   0.07411   0.00000  Uiso   1.00
N136   N     0.83271   0.03460   0.18999   0.00000  Uiso   1.00
N137   N     0.22998   0.33772   0.96453   0.00000  Uiso   1.00
N138   N     0.61206   0.54222   0.04660   0.00000  Uiso   1.00
C139   C     0.43862   0.50646   0.23635   0.00000  Uiso   1.00
C140   C     0.37413   0.38221   0.20986   0.00000  Uiso   1.00
C141   C     0.33285   0.38096   0.17226   0.00000  Uiso   1.00
C142   C     0.27610   0.25700   0.15284   0.00000  Uiso   1.00
C143   C     0.17815   0.08206   0.10903   0.00000  Uiso   1.00
C144   C     0.34816   0.46574   0.27199   0.00000  Uiso   1.00
C145   C     0.28506   0.53474   0.28664   0.00000  Uiso   1.00
C146   C     0.20646   0.48109   0.31952   0.00000  Uiso   1.00
C147   C     0.06828   0.43589   0.37220   0.00000  Uiso   1.00
C148   C     0.57481   0.52209   0.24937   0.00000  Uiso   1.00
C149   C     0.70229   0.63848   0.24500   0.00000  Uiso   1.00
C150   C     0.81453   0.63230   0.25884   0.00000  Uiso   1.00
C151   C     0.02826   0.67459   0.27640   0.00000  Uiso   1.00
C152   C     0.41125   0.28853   0.26870   0.00000  Uiso   1.00
C153   C     0.35925   0.26384   0.22743   0.00000  Uiso   1.00
C154   C     0.30256   0.13985   0.20805   0.00000  Uiso   1.00
C155   C     0.26121   0.13842   0.17044   0.00000  Uiso   1.00
C156   C     0.33328   0.34737   0.28956   0.00000  Uiso   1.00
C157   C     0.25477   0.29362   0.32243   0.00000  Uiso   1.00
C158   C     0.19156   0.36251   0.33712   0.00000  Uiso   1.00
C159   C     0.55995   0.40372   0.26694   0.00000  Uiso   1.00
C160   C     0.67200   0.39736   0.28079   0.00000  Uiso   1.00
C161   C     0.79963   0.51371   0.27645   0.00000  Uiso   1.00
H162   H     0.45020   0.59862   0.22267   0.00000  Uiso   1.00
H163   H     0.34436   0.47259   0.15868   0.00000  Uiso   1.00
H164   H     0.29660   0.62634   0.27304   0.00000  Uiso   1.00
H165   H     0.71376   0.73006   0.23141   0.00000  Uiso   1.00
H166   H     0.22042   0.28065   0.09548   0.00000  Uiso   1.00
H167   H     0.11974   0.60487   0.33663   0.00000  Uiso   1.00
H168   H     0.99942   0.82360   0.24884   0.00000  Uiso   1.00
H169   H     0.39967   0.19637   0.28238   0.00000  Uiso   1.00
H170   H     0.29106   0.04826   0.22166   0.00000  Uiso   1.00
H171   H     0.24329   0.20202   0.33602   0.00000  Uiso   1.00
H172   H     0.66046   0.30574   0.29438   0.00000  Uiso   1.00
H173   H     0.17716   0.93624   0.14660   0.00000  Uiso   1.00
H174   H     0.07648   0.26047   0.38774   0.00000  Uiso   1.00
H175   H     0.95615   0.47919   0.29995   0.00000  Uiso   1.00
O176   O     0.12821   0.01826   0.08002   0.00000  Uiso   1.00
O177   O     0.99615   0.44365   0.39640   0.00000  Uiso   1.00
O178   O     0.15026   0.73061   0.28122   0.00000  Uiso   1.00
N179   N     0.22517   0.21992   0.11584   0.00000  Uiso   1.00
N180   N     0.13102   0.52304   0.34129   0.00000  Uiso   1.00
N181   N     0.95344   0.72754   0.25923   0.00000  Uiso   1.00
N182   N     0.20189   0.03460   0.14335   0.00000  Uiso   1.00
N183   N     0.10774   0.33772   0.36880   0.00000  Uiso   1.00
N184   N     0.93016   0.54222   0.28673   0.00000  Uiso   1.00
C185   C     0.06784   0.56138   0.90302   0.00000  Uiso   1.00
C186   C     0.00808   0.62587   0.87652   0.00000  Uiso   1.00
C187   C     0.04812   0.66715   0.83893   0.00000  Uiso   1.00
C188   C     0.98090   0.72390   0.81950   0.00000  Uiso   1.00
C189   C     0.90391   0.82185   0.77570   0.00000  Uiso   1.00
C190   C     0.11758   0.65184   0.93866   0.00000  Uiso   1.00
C191   C     0.24968   0.71494   0.95331   0.00000  Uiso   1.00
C192   C     0.27463   0.79354   0.98619   0.00000  Uiso   1.00
C193   C     0.36761   0.93172   0.03887   0.00000  Uiso   1.00
C194   C     0.94728   0.42519   0.91603   0.00000  Uiso   1.00
C195   C     0.93619   0.29771   0.91167   0.00000  Uiso   1.00
C196   C     0.81777   0.18547   0.92551   0.00000  Uiso   1.00
C197   C     0.64633   0.97174   0.94306   0.00000  Uiso   1.00
C198   C     0.87729   0.58875   0.93536   0.00000  Uiso   1.00
C199   C     0.90459   0.64075   0.89410   0.00000  Uiso   1.00
C200   C     0.83729   0.69744   0.87472   0.00000  Uiso   1.00
C201   C     0.87721   0.73879   0.83710   0.00000  Uiso   1.00
C202   C     0.01409   0.66672   0.95623   0.00000  Uiso   1.00
C203   C     0.03885   0.74523   0.98909   0.00000  Uiso   1.00
C204   C     0.17094   0.80844   0.00379   0.00000  Uiso   1.00
C205   C     0.84377   0.44005   0.93360   0.00000  Uiso   1.00
C206   C     0.72536   0.32800   0.94746   0.00000  Uiso   1.00
C207   C     0.71408   0.20037   0.94311   0.00000  Uiso   1.00
H208   H     0.14843   0.54980   0.88934   0.00000  Uiso   1.00
H209   H     0.12823   0.65564   0.82535   0.00000  Uiso   1.00
H210   H     0.32975   0.70340   0.93971   0.00000  Uiso   1.00
H211   H     0.01630   0.28624   0.89807   0.00000  Uiso   1.00
H212   H     0.06022   0.77958   0.76215   0.00000  Uiso   1.00
H213   H     0.48513   0.88026   0.00329   0.00000  Uiso   1.00
H214   H     0.82418   0.00058   0.91550   0.00000  Uiso   1.00
H215   H     0.79670   0.60033   0.94904   0.00000  Uiso   1.00
H216   H     0.75720   0.70894   0.88832   0.00000  Uiso   1.00
H217   H     0.95873   0.75671   0.00268   0.00000  Uiso   1.00
H218   H     0.64528   0.33954   0.96105   0.00000  Uiso   1.00
H219   H     0.75909   0.82284   0.81326   0.00000  Uiso   1.00
H220   H     0.18400   0.92352   0.05441   0.00000  Uiso   1.00
H221   H     0.52304   0.04385   0.96662   0.00000  Uiso   1.00
O222   O     0.89005   0.87179   0.74669   0.00000  Uiso   1.00
O223   O     0.44750   0.00385   0.06307   0.00000  Uiso   1.00
O224   O     0.58035   0.84974   0.94788   0.00000  Uiso   1.00
N225   N     0.99475   0.77483   0.78251   0.00000  Uiso   1.00
N226   N     0.39202   0.86898   0.00796   0.00000  Uiso   1.00
N227   N     0.77410   0.04656   0.92589   0.00000  Uiso   1.00
N228   N     0.83271   0.79811   0.81001   0.00000  Uiso   1.00
N229   N     0.22998   0.89226   0.03547   0.00000  Uiso   1.00
N230   N     0.61206   0.06984   0.95340   0.00000  Uiso   1.00
C231   C     0.49354   0.93216   0.56968   0.00000  Uiso   1.00
C232   C     0.61779   0.99192   0.54319   0.00000  Uiso   1.00
C233   C     0.61904   0.95188   0.50560   0.00000  Uiso   1.00
C234   C     0.74300   0.01910   0.48617   0.00000  Uiso   1.00
C235   C     0.91794   0.09609   0.44237   0.00000  Uiso   1.00
C236   C     0.53426   0.88242   0.60532   0.00000  Uiso   1.00
C237   C     0.46526   0.75032   0.61997   0.00000  Uiso   1.00
C238   C     0.51891   0.72537   0.65285   0.00000  Uiso   1.00
C239   C     0.56411   0.63239   0.70553   0.00000  Uiso   1.00
C240   C     0.47791   0.05272   0.58270   0.00000  Uiso   1.00
C241   C     0.36152   0.06381   0.57834   0.00000  Uiso   1.00
C242   C     0.36770   0.18223   0.59218   0.00000  Uiso   1.00
C243   C     0.32541   0.35367   0.60973   0.00000  Uiso   1.00
C244   C     0.71147   0.12271   0.60203   0.00000  Uiso   1.00
C245   C     0.73616   0.09541   0.56076   0.00000  Uiso   1.00
C246   C     0.86015   0.16271   0.54138   0.00000  Uiso   1.00
C247   C     0.86158   0.12279   0.50377   0.00000  Uiso   1.00
C248   C     0.65263   0.98591   0.62289   0.00000  Uiso   1.00
C249   C     0.70638   0.96115   0.65576   0.00000  Uiso   1.00
C250   C     0.63749   0.82906   0.67046   0.00000  Uiso   1.00
C251   C     0.59628   0.15623   0.60027   0.00000  Uiso   1.00
C252   C     0.60264   0.27464   0.61412   0.00000  Uiso   1.00
C253   C     0.48629   0.28592   0.60978   0.00000  Uiso   1.00
H254   H     0.40138   0.85157   0.55601   0.00000  Uiso   1.00
H255   H     0.52741   0.87177   0.49201   0.00000  Uiso   1.00
H256   H     0.37366   0.67025   0.60637   0.00000  Uiso   1.00
H257   H     0.26994   0.98370   0.56474   0.00000  Uiso   1.00
H258   H     0.71935   0.93978   0.42882   0.00000  Uiso   1.00
H259   H     0.39513   0.51487   0.66996   0.00000  Uiso   1.00
H260   H     0.17640   0.17582   0.58217   0.00000  Uiso   1.00
H261   H     0.80363   0.20330   0.61571   0.00000  Uiso   1.00
H262   H     0.95174   0.24280   0.55499   0.00000  Uiso   1.00
H263   H     0.79798   0.04127   0.66935   0.00000  Uiso   1.00
H264   H     0.69426   0.35472   0.62772   0.00000  Uiso   1.00
H265   H     0.06376   0.24091   0.47993   0.00000  Uiso   1.00
H266   H     0.73953   0.81600   0.72108   0.00000  Uiso   1.00
H267   H     0.52081   0.47696   0.63328   0.00000  Uiso   1.00
O268   O     0.98174   0.10995   0.41336   0.00000  Uiso   1.00
O269   O     0.55635   0.55250   0.72973   0.00000  Uiso   1.00
O270   O     0.26939   0.41965   0.61455   0.00000  Uiso   1.00
N271   N     0.78008   0.00525   0.44918   0.00000  Uiso   1.00
N272   N     0.47696   0.60798   0.67463   0.00000  Uiso   1.00
N273   N     0.27246   0.22590   0.59256   0.00000  Uiso   1.00
N274   N     0.96540   0.16729   0.47668   0.00000  Uiso   1.00
N275   N     0.66228   0.77002   0.70213   0.00000  Uiso   1.00
N276   N     0.45778   0.38794   0.62007   0.00000  Uiso   1.00
