data_job_01254
_audit_creation_date              2018-12-19
_audit_creation_method            'Materials Studio'
_symmetry_space_group_name_H-M    'P1'
_symmetry_Int_Tables_number       1
_symmetry_cell_setting            triclinic
loop_
_symmetry_equiv_pos_as_xyz
  x,y,z
_cell_length_a                    20.3328
_cell_length_b                    23.0861
_cell_length_c                    14.5276
_cell_angle_alpha                 90.0000
_cell_angle_beta                  90.0000
_cell_angle_gamma                 90.0000
loop_
_atom_site_label
_atom_site_type_symbol
_atom_site_fract_x
_atom_site_fract_y
_atom_site_fract_z
_atom_site_U_iso_or_equiv
_atom_site_adp_type
_atom_site_occupancy
C1     C     0.82677   0.97147   0.96004   0.00000  Uiso   1.00
C2     C     0.86682   0.02163   0.92099   0.00000  Uiso   1.00
C3     C     0.90124   0.06233   0.97217   0.00000  Uiso   1.00
C4     C     0.93480   0.10483   0.92354   0.00000  Uiso   1.00
C5     C     0.99709   0.18246   0.87755   0.00000  Uiso   1.00
C6     C     0.75758   0.97827   0.92102   0.00000  Uiso   1.00
C7     C     0.70016   0.98250   0.97223   0.00000  Uiso   1.00
C8     C     0.64176   0.98850   0.92362   0.00000  Uiso   1.00
C9     C     0.53445   0.99877   0.87768   0.00000  Uiso   1.00
C10    C     0.85480   0.91666   0.91656   0.00000  Uiso   1.00
C11    C     0.87912   0.86909   0.96403   0.00000  Uiso   1.00
C12    C     0.90257   0.82321   0.91166   0.00000  Uiso   1.00
C13    C     0.94621   0.73783   0.85880   0.00000  Uiso   1.00
C14    C     0.82515   0.97458   0.78265   0.00000  Uiso   1.00
C15    C     0.86593   0.02331   0.82463   0.00000  Uiso   1.00
C16    C     0.89945   0.06576   0.77591   0.00000  Uiso   1.00
C17    C     0.93393   0.10652   0.82701   0.00000  Uiso   1.00
C18    C     0.75669   0.97995   0.82467   0.00000  Uiso   1.00
C19    C     0.69837   0.98594   0.77597   0.00000  Uiso   1.00
C20    C     0.64088   0.99019   0.82710   0.00000  Uiso   1.00
C21    C     0.85393   0.91835   0.82021   0.00000  Uiso   1.00
C22    C     0.87733   0.87253   0.76776   0.00000  Uiso   1.00
C23    C     0.90168   0.82490   0.81514   0.00000  Uiso   1.00
H24    H     0.82745   0.97016   0.03506   0.00000  Uiso   1.00
H25    H     0.90191   0.06101   0.04674   0.00000  Uiso   1.00
H26    H     0.70085   0.98119   0.04680   0.00000  Uiso   1.00
H27    H     0.87979   0.86780   0.03859   0.00000  Uiso   1.00
H28    H     0.98405   0.16249   0.01720   0.00000  Uiso   1.00
H29    H     0.56012   0.99417   0.01732   0.00000  Uiso   1.00
H30    H     0.93744   0.75506   0.00002   0.00000  Uiso   1.00
H31    H     0.82446   0.97589   0.70763   0.00000  Uiso   1.00
H32    H     0.89876   0.06706   0.70134   0.00000  Uiso   1.00
H33    H     0.69771   0.98724   0.70141   0.00000  Uiso   1.00
H34    H     0.87664   0.87385   0.69320   0.00000  Uiso   1.00
H35    H     0.98149   0.16740   0.73686   0.00000  Uiso   1.00
H36    H     0.55756   0.99908   0.73699   0.00000  Uiso   1.00
H37    H     0.93488   0.75997   0.71968   0.00000  Uiso   1.00
O38    O     0.03168   0.22482   0.87880   0.00000  Uiso   1.00
O39    O     0.47550   0.00398   0.87897   0.00000  Uiso   1.00
O40    O     0.97054   0.69028   0.85626   0.00000  Uiso   1.00
N41    N     0.97326   0.15113   0.95208   0.00000  Uiso   1.00
N42    N     0.57691   0.99377   0.95220   0.00000  Uiso   1.00
N43    N     0.92966   0.77021   0.93602   0.00000  Uiso   1.00
N44    N     0.97189   0.15377   0.80124   0.00000  Uiso   1.00
N45    N     0.57554   0.99641   0.80136   0.00000  Uiso   1.00
N46    N     0.92829   0.77285   0.78518   0.00000  Uiso   1.00
C47    C     0.67323   0.52853   0.96004   0.00000  Uiso   1.00
C48    C     0.63318   0.47837   0.92099   0.00000  Uiso   1.00
C49    C     0.59876   0.43767   0.97217   0.00000  Uiso   1.00
C50    C     0.56520   0.39517   0.92354   0.00000  Uiso   1.00
C51    C     0.50291   0.31754   0.87755   0.00000  Uiso   1.00
C52    C     0.74242   0.52173   0.92102   0.00000  Uiso   1.00
C53    C     0.79984   0.51750   0.97223   0.00000  Uiso   1.00
C54    C     0.85824   0.51150   0.92362   0.00000  Uiso   1.00
C55    C     0.96555   0.50123   0.87768   0.00000  Uiso   1.00
C56    C     0.64520   0.58334   0.91656   0.00000  Uiso   1.00
C57    C     0.62088   0.63091   0.96403   0.00000  Uiso   1.00
C58    C     0.59743   0.67679   0.91166   0.00000  Uiso   1.00
C59    C     0.55379   0.76217   0.85880   0.00000  Uiso   1.00
C60    C     0.67485   0.52542   0.78265   0.00000  Uiso   1.00
C61    C     0.63407   0.47669   0.82463   0.00000  Uiso   1.00
C62    C     0.60055   0.43424   0.77591   0.00000  Uiso   1.00
C63    C     0.56607   0.39348   0.82701   0.00000  Uiso   1.00
C64    C     0.74331   0.52005   0.82467   0.00000  Uiso   1.00
C65    C     0.80163   0.51406   0.77597   0.00000  Uiso   1.00
C66    C     0.85912   0.50981   0.82710   0.00000  Uiso   1.00
C67    C     0.64607   0.58165   0.82021   0.00000  Uiso   1.00
C68    C     0.62267   0.62747   0.76776   0.00000  Uiso   1.00
C69    C     0.59832   0.67510   0.81514   0.00000  Uiso   1.00
H70    H     0.67255   0.52984   0.03506   0.00000  Uiso   1.00
H71    H     0.59809   0.43899   0.04674   0.00000  Uiso   1.00
H72    H     0.79915   0.51881   0.04680   0.00000  Uiso   1.00
H73    H     0.62021   0.63220   0.03859   0.00000  Uiso   1.00
H74    H     0.51595   0.33751   0.01720   0.00000  Uiso   1.00
H75    H     0.93988   0.50583   0.01732   0.00000  Uiso   1.00
H76    H     0.56256   0.74494   0.00002   0.00000  Uiso   1.00
H77    H     0.67554   0.52411   0.70763   0.00000  Uiso   1.00
H78    H     0.60124   0.43294   0.70134   0.00000  Uiso   1.00
H79    H     0.80229   0.51276   0.70141   0.00000  Uiso   1.00
H80    H     0.62336   0.62615   0.69320   0.00000  Uiso   1.00
H81    H     0.51851   0.33260   0.73686   0.00000  Uiso   1.00
H82    H     0.94244   0.50092   0.73699   0.00000  Uiso   1.00
H83    H     0.56512   0.74003   0.71968   0.00000  Uiso   1.00
O84    O     0.46832   0.27518   0.87880   0.00000  Uiso   1.00
O85    O     0.02450   0.49602   0.87897   0.00000  Uiso   1.00
O86    O     0.52946   0.80972   0.85626   0.00000  Uiso   1.00
N87    N     0.52674   0.34887   0.95208   0.00000  Uiso   1.00
N88    N     0.92309   0.50623   0.95220   0.00000  Uiso   1.00
N89    N     0.57034   0.72979   0.93602   0.00000  Uiso   1.00
N90    N     0.52811   0.34623   0.80124   0.00000  Uiso   1.00
N91    N     0.92446   0.50359   0.80136   0.00000  Uiso   1.00
N92    N     0.57171   0.72715   0.78518   0.00000  Uiso   1.00
C93    C     0.17323   0.47147   0.53996   0.00000  Uiso   1.00
C94    C     0.13318   0.52163   0.57901   0.00000  Uiso   1.00
C95    C     0.09876   0.56233   0.52783   0.00000  Uiso   1.00
C96    C     0.06520   0.60483   0.57646   0.00000  Uiso   1.00
C97    C     0.00291   0.68246   0.62245   0.00000  Uiso   1.00
C98    C     0.24242   0.47827   0.57898   0.00000  Uiso   1.00
C99    C     0.29984   0.48250   0.52777   0.00000  Uiso   1.00
C100   C     0.35824   0.48850   0.57638   0.00000  Uiso   1.00
C101   C     0.46555   0.49877   0.62232   0.00000  Uiso   1.00
C102   C     0.14520   0.41666   0.58344   0.00000  Uiso   1.00
C103   C     0.12088   0.36909   0.53597   0.00000  Uiso   1.00
C104   C     0.09743   0.32321   0.58834   0.00000  Uiso   1.00
C105   C     0.05379   0.23783   0.64120   0.00000  Uiso   1.00
C106   C     0.17485   0.47458   0.71735   0.00000  Uiso   1.00
C107   C     0.13407   0.52331   0.67537   0.00000  Uiso   1.00
C108   C     0.10055   0.56576   0.72409   0.00000  Uiso   1.00
C109   C     0.06607   0.60652   0.67299   0.00000  Uiso   1.00
C110   C     0.24331   0.47995   0.67533   0.00000  Uiso   1.00
C111   C     0.30163   0.48594   0.72403   0.00000  Uiso   1.00
C112   C     0.35912   0.49019   0.67290   0.00000  Uiso   1.00
C113   C     0.14607   0.41835   0.67979   0.00000  Uiso   1.00
C114   C     0.12267   0.37253   0.73224   0.00000  Uiso   1.00
C115   C     0.09832   0.32490   0.68486   0.00000  Uiso   1.00
H116   H     0.17255   0.47016   0.46494   0.00000  Uiso   1.00
H117   H     0.09809   0.56101   0.45326   0.00000  Uiso   1.00
H118   H     0.29915   0.48119   0.45320   0.00000  Uiso   1.00
H119   H     0.12021   0.36780   0.46141   0.00000  Uiso   1.00
H120   H     0.01595   0.66249   0.48280   0.00000  Uiso   1.00
H121   H     0.43988   0.49417   0.48268   0.00000  Uiso   1.00
H122   H     0.06256   0.25506   0.49998   0.00000  Uiso   1.00
H123   H     0.17554   0.47589   0.79237   0.00000  Uiso   1.00
H124   H     0.10124   0.56706   0.79866   0.00000  Uiso   1.00
H125   H     0.30229   0.48724   0.79859   0.00000  Uiso   1.00
H126   H     0.12336   0.37385   0.80680   0.00000  Uiso   1.00
H127   H     0.01851   0.66740   0.76314   0.00000  Uiso   1.00
H128   H     0.44244   0.49908   0.76301   0.00000  Uiso   1.00
H129   H     0.06512   0.25997   0.78032   0.00000  Uiso   1.00
O130   O     0.96832   0.72482   0.62120   0.00000  Uiso   1.00
O131   O     0.52450   0.50398   0.62103   0.00000  Uiso   1.00
O132   O     0.02946   0.19028   0.64374   0.00000  Uiso   1.00
N133   N     0.02674   0.65113   0.54792   0.00000  Uiso   1.00
N134   N     0.42309   0.49377   0.54780   0.00000  Uiso   1.00
N135   N     0.07034   0.27021   0.56398   0.00000  Uiso   1.00
N136   N     0.02811   0.65377   0.69876   0.00000  Uiso   1.00
N137   N     0.42446   0.49641   0.69864   0.00000  Uiso   1.00
N138   N     0.07171   0.27285   0.71482   0.00000  Uiso   1.00
C139   C     0.32677   0.02853   0.53996   0.00000  Uiso   1.00
C140   C     0.36682   0.97837   0.57901   0.00000  Uiso   1.00
C141   C     0.40124   0.93767   0.52783   0.00000  Uiso   1.00
C142   C     0.43480   0.89517   0.57646   0.00000  Uiso   1.00
C143   C     0.49709   0.81754   0.62245   0.00000  Uiso   1.00
C144   C     0.25758   0.02173   0.57898   0.00000  Uiso   1.00
C145   C     0.20016   0.01750   0.52777   0.00000  Uiso   1.00
C146   C     0.14176   0.01150   0.57638   0.00000  Uiso   1.00
C147   C     0.03445   0.00123   0.62232   0.00000  Uiso   1.00
C148   C     0.35480   0.08334   0.58344   0.00000  Uiso   1.00
C149   C     0.37912   0.13091   0.53597   0.00000  Uiso   1.00
C150   C     0.40257   0.17679   0.58834   0.00000  Uiso   1.00
C151   C     0.44621   0.26217   0.64120   0.00000  Uiso   1.00
C152   C     0.32515   0.02542   0.71735   0.00000  Uiso   1.00
C153   C     0.36593   0.97669   0.67537   0.00000  Uiso   1.00
C154   C     0.39945   0.93424   0.72409   0.00000  Uiso   1.00
C155   C     0.43393   0.89348   0.67299   0.00000  Uiso   1.00
C156   C     0.25669   0.02005   0.67533   0.00000  Uiso   1.00
C157   C     0.19837   0.01406   0.72403   0.00000  Uiso   1.00
C158   C     0.14088   0.00981   0.67290   0.00000  Uiso   1.00
C159   C     0.35393   0.08165   0.67979   0.00000  Uiso   1.00
C160   C     0.37733   0.12747   0.73224   0.00000  Uiso   1.00
C161   C     0.40168   0.17510   0.68486   0.00000  Uiso   1.00
H162   H     0.32745   0.02984   0.46494   0.00000  Uiso   1.00
H163   H     0.40191   0.93899   0.45326   0.00000  Uiso   1.00
H164   H     0.20085   0.01881   0.45320   0.00000  Uiso   1.00
H165   H     0.37979   0.13220   0.46141   0.00000  Uiso   1.00
H166   H     0.48405   0.83751   0.48280   0.00000  Uiso   1.00
H167   H     0.06012   0.00583   0.48268   0.00000  Uiso   1.00
H168   H     0.43744   0.24494   0.49998   0.00000  Uiso   1.00
H169   H     0.32446   0.02411   0.79237   0.00000  Uiso   1.00
H170   H     0.39876   0.93294   0.79866   0.00000  Uiso   1.00
H171   H     0.19771   0.01276   0.79859   0.00000  Uiso   1.00
H172   H     0.37664   0.12615   0.80680   0.00000  Uiso   1.00
H173   H     0.48149   0.83260   0.76314   0.00000  Uiso   1.00
H174   H     0.05756   0.00092   0.76301   0.00000  Uiso   1.00
H175   H     0.43488   0.24003   0.78032   0.00000  Uiso   1.00
O176   O     0.53168   0.77518   0.62120   0.00000  Uiso   1.00
O177   O     0.97550   0.99602   0.62103   0.00000  Uiso   1.00
O178   O     0.47054   0.30972   0.64374   0.00000  Uiso   1.00
N179   N     0.47326   0.84887   0.54792   0.00000  Uiso   1.00
N180   N     0.07691   0.00623   0.54780   0.00000  Uiso   1.00
N181   N     0.42966   0.22979   0.56398   0.00000  Uiso   1.00
N182   N     0.47189   0.84623   0.69876   0.00000  Uiso   1.00
N183   N     0.07554   0.00359   0.69864   0.00000  Uiso   1.00
N184   N     0.42829   0.22715   0.71482   0.00000  Uiso   1.00
C185   C     0.17323   0.02853   0.03996   0.00000  Uiso   1.00
C186   C     0.13318   0.97837   0.07901   0.00000  Uiso   1.00
C187   C     0.09876   0.93767   0.02783   0.00000  Uiso   1.00
C188   C     0.06520   0.89517   0.07646   0.00000  Uiso   1.00
C189   C     0.00291   0.81754   0.12245   0.00000  Uiso   1.00
C190   C     0.24242   0.02173   0.07898   0.00000  Uiso   1.00
C191   C     0.29984   0.01750   0.02777   0.00000  Uiso   1.00
C192   C     0.35824   0.01150   0.07638   0.00000  Uiso   1.00
C193   C     0.46555   0.00123   0.12232   0.00000  Uiso   1.00
C194   C     0.14520   0.08334   0.08344   0.00000  Uiso   1.00
C195   C     0.12088   0.13091   0.03597   0.00000  Uiso   1.00
C196   C     0.09743   0.17679   0.08834   0.00000  Uiso   1.00
C197   C     0.05379   0.26217   0.14120   0.00000  Uiso   1.00
C198   C     0.17485   0.02542   0.21735   0.00000  Uiso   1.00
C199   C     0.13407   0.97669   0.17537   0.00000  Uiso   1.00
C200   C     0.10055   0.93424   0.22409   0.00000  Uiso   1.00
C201   C     0.06607   0.89348   0.17299   0.00000  Uiso   1.00
C202   C     0.24331   0.02005   0.17533   0.00000  Uiso   1.00
C203   C     0.30163   0.01406   0.22403   0.00000  Uiso   1.00
C204   C     0.35912   0.00981   0.17290   0.00000  Uiso   1.00
C205   C     0.14607   0.08165   0.17979   0.00000  Uiso   1.00
C206   C     0.12267   0.12747   0.23224   0.00000  Uiso   1.00
C207   C     0.09832   0.17510   0.18486   0.00000  Uiso   1.00
H208   H     0.17255   0.02984   0.96494   0.00000  Uiso   1.00
H209   H     0.09809   0.93899   0.95326   0.00000  Uiso   1.00
H210   H     0.29915   0.01881   0.95320   0.00000  Uiso   1.00
H211   H     0.12021   0.13220   0.96141   0.00000  Uiso   1.00
H212   H     0.01595   0.83751   0.98280   0.00000  Uiso   1.00
H213   H     0.43988   0.00583   0.98268   0.00000  Uiso   1.00
H214   H     0.06256   0.24494   0.99998   0.00000  Uiso   1.00
H215   H     0.17554   0.02411   0.29237   0.00000  Uiso   1.00
H216   H     0.10124   0.93294   0.29866   0.00000  Uiso   1.00
H217   H     0.30229   0.01276   0.29859   0.00000  Uiso   1.00
H218   H     0.12336   0.12615   0.30680   0.00000  Uiso   1.00
H219   H     0.01851   0.83260   0.26314   0.00000  Uiso   1.00
H220   H     0.44244   0.00092   0.26301   0.00000  Uiso   1.00
H221   H     0.06512   0.24003   0.28032   0.00000  Uiso   1.00
O222   O     0.96832   0.77518   0.12120   0.00000  Uiso   1.00
O223   O     0.52450   0.99602   0.12103   0.00000  Uiso   1.00
O224   O     0.02946   0.30972   0.14374   0.00000  Uiso   1.00
N225   N     0.02674   0.84887   0.04792   0.00000  Uiso   1.00
N226   N     0.42309   0.00623   0.04780   0.00000  Uiso   1.00
N227   N     0.07034   0.22979   0.06398   0.00000  Uiso   1.00
N228   N     0.02811   0.84623   0.19876   0.00000  Uiso   1.00
N229   N     0.42446   0.00359   0.19864   0.00000  Uiso   1.00
N230   N     0.07171   0.22715   0.21482   0.00000  Uiso   1.00
C231   C     0.32677   0.47147   0.03996   0.00000  Uiso   1.00
C232   C     0.36682   0.52163   0.07901   0.00000  Uiso   1.00
C233   C     0.40124   0.56233   0.02783   0.00000  Uiso   1.00
C234   C     0.43480   0.60483   0.07646   0.00000  Uiso   1.00
C235   C     0.49709   0.68246   0.12245   0.00000  Uiso   1.00
C236   C     0.25758   0.47827   0.07898   0.00000  Uiso   1.00
C237   C     0.20016   0.48250   0.02777   0.00000  Uiso   1.00
C238   C     0.14176   0.48850   0.07638   0.00000  Uiso   1.00
C239   C     0.03445   0.49877   0.12232   0.00000  Uiso   1.00
C240   C     0.35480   0.41666   0.08344   0.00000  Uiso   1.00
C241   C     0.37912   0.36909   0.03597   0.00000  Uiso   1.00
C242   C     0.40257   0.32321   0.08834   0.00000  Uiso   1.00
C243   C     0.44621   0.23783   0.14120   0.00000  Uiso   1.00
C244   C     0.32515   0.47458   0.21735   0.00000  Uiso   1.00
C245   C     0.36593   0.52331   0.17537   0.00000  Uiso   1.00
C246   C     0.39945   0.56576   0.22409   0.00000  Uiso   1.00
C247   C     0.43393   0.60652   0.17299   0.00000  Uiso   1.00
C248   C     0.25669   0.47995   0.17533   0.00000  Uiso   1.00
C249   C     0.19837   0.48594   0.22403   0.00000  Uiso   1.00
C250   C     0.14088   0.49019   0.17290   0.00000  Uiso   1.00
C251   C     0.35393   0.41835   0.17979   0.00000  Uiso   1.00
C252   C     0.37733   0.37253   0.23224   0.00000  Uiso   1.00
C253   C     0.40168   0.32490   0.18486   0.00000  Uiso   1.00
H254   H     0.32745   0.47016   0.96494   0.00000  Uiso   1.00
H255   H     0.40191   0.56101   0.95326   0.00000  Uiso   1.00
H256   H     0.20085   0.48119   0.95320   0.00000  Uiso   1.00
H257   H     0.37979   0.36780   0.96141   0.00000  Uiso   1.00
H258   H     0.48405   0.66249   0.98280   0.00000  Uiso   1.00
H259   H     0.06012   0.49417   0.98268   0.00000  Uiso   1.00
H260   H     0.43744   0.25506   0.99998   0.00000  Uiso   1.00
H261   H     0.32446   0.47589   0.29237   0.00000  Uiso   1.00
H262   H     0.39876   0.56706   0.29866   0.00000  Uiso   1.00
H263   H     0.19771   0.48724   0.29859   0.00000  Uiso   1.00
H264   H     0.37664   0.37385   0.30680   0.00000  Uiso   1.00
H265   H     0.48149   0.66740   0.26314   0.00000  Uiso   1.00
H266   H     0.05756   0.49908   0.26301   0.00000  Uiso   1.00
H267   H     0.43488   0.25997   0.28032   0.00000  Uiso   1.00
O268   O     0.53168   0.72482   0.12120   0.00000  Uiso   1.00
O269   O     0.97550   0.50398   0.12103   0.00000  Uiso   1.00
O270   O     0.47054   0.19028   0.14374   0.00000  Uiso   1.00
N271   N     0.47326   0.65113   0.04792   0.00000  Uiso   1.00
N272   N     0.07691   0.49377   0.04780   0.00000  Uiso   1.00
N273   N     0.42966   0.27021   0.06398   0.00000  Uiso   1.00
N274   N     0.47189   0.65377   0.19876   0.00000  Uiso   1.00
N275   N     0.07554   0.49641   0.19864   0.00000  Uiso   1.00
N276   N     0.42829   0.27285   0.21482   0.00000  Uiso   1.00
C277   C     0.82677   0.52853   0.46004   0.00000  Uiso   1.00
C278   C     0.86682   0.47837   0.42099   0.00000  Uiso   1.00
C279   C     0.90124   0.43767   0.47217   0.00000  Uiso   1.00
C280   C     0.93480   0.39517   0.42354   0.00000  Uiso   1.00
C281   C     0.99709   0.31754   0.37755   0.00000  Uiso   1.00
C282   C     0.75758   0.52173   0.42102   0.00000  Uiso   1.00
C283   C     0.70016   0.51750   0.47223   0.00000  Uiso   1.00
C284   C     0.64176   0.51150   0.42362   0.00000  Uiso   1.00
C285   C     0.53445   0.50123   0.37768   0.00000  Uiso   1.00
C286   C     0.85480   0.58334   0.41656   0.00000  Uiso   1.00
C287   C     0.87912   0.63091   0.46403   0.00000  Uiso   1.00
C288   C     0.90257   0.67679   0.41166   0.00000  Uiso   1.00
C289   C     0.94621   0.76217   0.35880   0.00000  Uiso   1.00
C290   C     0.82515   0.52542   0.28265   0.00000  Uiso   1.00
C291   C     0.86593   0.47669   0.32463   0.00000  Uiso   1.00
C292   C     0.89945   0.43424   0.27591   0.00000  Uiso   1.00
C293   C     0.93393   0.39348   0.32701   0.00000  Uiso   1.00
C294   C     0.75669   0.52005   0.32467   0.00000  Uiso   1.00
C295   C     0.69837   0.51406   0.27597   0.00000  Uiso   1.00
C296   C     0.64088   0.50981   0.32710   0.00000  Uiso   1.00
C297   C     0.85393   0.58165   0.32021   0.00000  Uiso   1.00
C298   C     0.87733   0.62747   0.26776   0.00000  Uiso   1.00
C299   C     0.90168   0.67510   0.31514   0.00000  Uiso   1.00
H300   H     0.82745   0.52984   0.53506   0.00000  Uiso   1.00
H301   H     0.90191   0.43899   0.54674   0.00000  Uiso   1.00
H302   H     0.70085   0.51881   0.54680   0.00000  Uiso   1.00
H303   H     0.87979   0.63220   0.53859   0.00000  Uiso   1.00
H304   H     0.98405   0.33751   0.51720   0.00000  Uiso   1.00
H305   H     0.56012   0.50583   0.51732   0.00000  Uiso   1.00
H306   H     0.93744   0.74494   0.50002   0.00000  Uiso   1.00
H307   H     0.82446   0.52411   0.20763   0.00000  Uiso   1.00
H308   H     0.89876   0.43294   0.20134   0.00000  Uiso   1.00
H309   H     0.69771   0.51276   0.20141   0.00000  Uiso   1.00
H310   H     0.87664   0.62615   0.19320   0.00000  Uiso   1.00
H311   H     0.98149   0.33260   0.23686   0.00000  Uiso   1.00
H312   H     0.55756   0.50092   0.23699   0.00000  Uiso   1.00
H313   H     0.93488   0.74003   0.21968   0.00000  Uiso   1.00
O314   O     0.03168   0.27518   0.37880   0.00000  Uiso   1.00
O315   O     0.47550   0.49602   0.37897   0.00000  Uiso   1.00
O316   O     0.97054   0.80972   0.35626   0.00000  Uiso   1.00
N317   N     0.97326   0.34887   0.45208   0.00000  Uiso   1.00
N318   N     0.57691   0.50623   0.45220   0.00000  Uiso   1.00
N319   N     0.92966   0.72979   0.43602   0.00000  Uiso   1.00
N320   N     0.97189   0.34623   0.30124   0.00000  Uiso   1.00
N321   N     0.57554   0.50359   0.30136   0.00000  Uiso   1.00
N322   N     0.92829   0.72715   0.28518   0.00000  Uiso   1.00
C323   C     0.67323   0.97147   0.46004   0.00000  Uiso   1.00
C324   C     0.63318   0.02163   0.42099   0.00000  Uiso   1.00
C325   C     0.59876   0.06233   0.47217   0.00000  Uiso   1.00
C326   C     0.56520   0.10483   0.42354   0.00000  Uiso   1.00
C327   C     0.50291   0.18246   0.37755   0.00000  Uiso   1.00
C328   C     0.74242   0.97827   0.42102   0.00000  Uiso   1.00
C329   C     0.79984   0.98250   0.47223   0.00000  Uiso   1.00
C330   C     0.85824   0.98850   0.42362   0.00000  Uiso   1.00
C331   C     0.96555   0.99877   0.37768   0.00000  Uiso   1.00
C332   C     0.64520   0.91666   0.41656   0.00000  Uiso   1.00
C333   C     0.62088   0.86909   0.46403   0.00000  Uiso   1.00
C334   C     0.59743   0.82321   0.41166   0.00000  Uiso   1.00
C335   C     0.55379   0.73783   0.35880   0.00000  Uiso   1.00
C336   C     0.67485   0.97458   0.28265   0.00000  Uiso   1.00
C337   C     0.63407   0.02331   0.32463   0.00000  Uiso   1.00
C338   C     0.60055   0.06576   0.27591   0.00000  Uiso   1.00
C339   C     0.56607   0.10652   0.32701   0.00000  Uiso   1.00
C340   C     0.74331   0.97995   0.32467   0.00000  Uiso   1.00
C341   C     0.80163   0.98594   0.27597   0.00000  Uiso   1.00
C342   C     0.85912   0.99019   0.32710   0.00000  Uiso   1.00
C343   C     0.64607   0.91835   0.32021   0.00000  Uiso   1.00
C344   C     0.62267   0.87253   0.26776   0.00000  Uiso   1.00
C345   C     0.59832   0.82490   0.31514   0.00000  Uiso   1.00
H346   H     0.67255   0.97016   0.53506   0.00000  Uiso   1.00
H347   H     0.59809   0.06101   0.54674   0.00000  Uiso   1.00
H348   H     0.79915   0.98119   0.54680   0.00000  Uiso   1.00
H349   H     0.62021   0.86780   0.53859   0.00000  Uiso   1.00
H350   H     0.51595   0.16249   0.51720   0.00000  Uiso   1.00
H351   H     0.93988   0.99417   0.51732   0.00000  Uiso   1.00
H352   H     0.56256   0.75506   0.50002   0.00000  Uiso   1.00
H353   H     0.67554   0.97589   0.20763   0.00000  Uiso   1.00
H354   H     0.60124   0.06706   0.20134   0.00000  Uiso   1.00
H355   H     0.80229   0.98724   0.20141   0.00000  Uiso   1.00
H356   H     0.62336   0.87385   0.19320   0.00000  Uiso   1.00
H357   H     0.51851   0.16740   0.23686   0.00000  Uiso   1.00
H358   H     0.94244   0.99908   0.23699   0.00000  Uiso   1.00
H359   H     0.56512   0.75997   0.21968   0.00000  Uiso   1.00
O360   O     0.46832   0.22482   0.37880   0.00000  Uiso   1.00
O361   O     0.02450   0.00398   0.37897   0.00000  Uiso   1.00
O362   O     0.52946   0.69028   0.35626   0.00000  Uiso   1.00
N363   N     0.52674   0.15113   0.45208   0.00000  Uiso   1.00
N364   N     0.92309   0.99377   0.45220   0.00000  Uiso   1.00
N365   N     0.57034   0.77021   0.43602   0.00000  Uiso   1.00
N366   N     0.52811   0.15377   0.30124   0.00000  Uiso   1.00
N367   N     0.92446   0.99641   0.30136   0.00000  Uiso   1.00
N368   N     0.57171   0.77285   0.28518   0.00000  Uiso   1.00
