data_job_03660
_audit_creation_date              2018-12-19
_audit_creation_method            'Materials Studio'
_symmetry_space_group_name_H-M    'P1'
_symmetry_Int_Tables_number       1
_symmetry_cell_setting            triclinic
loop_
_symmetry_equiv_pos_as_xyz
  x,y,z
_cell_length_a                    13.8801
_cell_length_b                    12.0115
_cell_length_c                    22.3173
_cell_angle_alpha                 90.0000
_cell_angle_beta                  44.4857
_cell_angle_gamma                 90.0000
loop_
_atom_site_label
_atom_site_type_symbol
_atom_site_fract_x
_atom_site_fract_y
_atom_site_fract_z
_atom_site_U_iso_or_equiv
_atom_site_adp_type
_atom_site_occupancy
C1     C     0.96603   0.38024   0.22084   0.00000  Uiso   1.00
C2     C     0.84298   0.31434   0.25230   0.00000  Uiso   1.00
C3     C     0.84052   0.20063   0.24244   0.00000  Uiso   1.00
C4     C     0.71800   0.15609   0.27572   0.00000  Uiso   1.00
C5     C     0.54458   0.04362   0.31820   0.00000  Uiso   1.00
C6     C     0.99182   0.47190   0.16348   0.00000  Uiso   1.00
C7     C     0.11450   0.49066   0.07893   0.00000  Uiso   1.00
C8     C     0.11727   0.57876   0.03745   0.00000  Uiso   1.00
C9     C     0.17495   0.71093   0.94204   0.00000  Uiso   1.00
C10    C     0.91719   0.43884   0.29927   0.00000  Uiso   1.00
C11    C     0.97715   0.42984   0.32888   0.00000  Uiso   1.00
C12    C     0.91710   0.49013   0.40171   0.00000  Uiso   1.00
C13    C     0.85890   0.57097   0.51714   0.00000  Uiso   1.00
C14    C     0.75282   0.50335   0.29749   0.00000  Uiso   1.00
C15    C     0.72718   0.38122   0.29393   0.00000  Uiso   1.00
C16    C     0.60463   0.33684   0.32724   0.00000  Uiso   1.00
C17    C     0.60198   0.22308   0.31743   0.00000  Uiso   1.00
C18    C     0.87602   0.53876   0.20511   0.00000  Uiso   1.00
C19    C     0.87861   0.62686   0.16374   0.00000  Uiso   1.00
C20    C     0.00126   0.64575   0.07915   0.00000  Uiso   1.00
C21    C     0.80138   0.50571   0.34090   0.00000  Uiso   1.00
C22    C     0.74124   0.56603   0.41369   0.00000  Uiso   1.00
C23    C     0.80109   0.55712   0.44342   0.00000  Uiso   1.00
H24    H     0.05620   0.32818   0.18843   0.00000  Uiso   1.00
H25    H     0.93017   0.14892   0.21021   0.00000  Uiso   1.00
H26    H     0.20411   0.43890   0.04674   0.00000  Uiso   1.00
H27    H     0.06676   0.37808   0.29665   0.00000  Uiso   1.00
H28    H     0.73939   0.97966   0.25269   0.00000  Uiso   1.00
H29    H     0.31702   0.59114   0.90801   0.00000  Uiso   1.00
H30    H     0.02740   0.46289   0.43500   0.00000  Uiso   1.00
H31    H     0.66266   0.55541   0.32990   0.00000  Uiso   1.00
H32    H     0.51503   0.38860   0.35946   0.00000  Uiso   1.00
H33    H     0.78897   0.67859   0.19598   0.00000  Uiso   1.00
H34    H     0.65162   0.61777   0.44589   0.00000  Uiso   1.00
H35    H     0.40245   0.17420   0.37382   0.00000  Uiso   1.00
H36    H     0.98008   0.78568   0.02913   0.00000  Uiso   1.00
H37    H     0.69046   0.65743   0.55613   0.00000  Uiso   1.00
O38    O     0.48092   0.96311   0.33011   0.00000  Uiso   1.00
O39    O     0.23875   0.76535   0.87791   0.00000  Uiso   1.00
O40    O     0.85878   0.59709   0.56931   0.00000  Uiso   1.00
N41    N     0.68034   0.04833   0.27716   0.00000  Uiso   1.00
N42    N     0.22038   0.62002   0.95489   0.00000  Uiso   1.00
N43    N     0.94964   0.50014   0.44757   0.00000  Uiso   1.00
N44    N     0.49903   0.15301   0.34234   0.00000  Uiso   1.00
N45    N     0.03908   0.72470   0.02007   0.00000  Uiso   1.00
N46    N     0.76833   0.60482   0.51275   0.00000  Uiso   1.00
C47    C     0.03397   0.88024   0.27916   0.00000  Uiso   1.00
C48    C     0.15702   0.81434   0.24770   0.00000  Uiso   1.00
C49    C     0.15948   0.70063   0.25756   0.00000  Uiso   1.00
C50    C     0.28200   0.65609   0.22428   0.00000  Uiso   1.00
C51    C     0.45542   0.54362   0.18180   0.00000  Uiso   1.00
C52    C     0.00818   0.97190   0.33652   0.00000  Uiso   1.00
C53    C     0.88550   0.99066   0.42107   0.00000  Uiso   1.00
C54    C     0.88273   0.07876   0.46255   0.00000  Uiso   1.00
C55    C     0.82505   0.21093   0.55796   0.00000  Uiso   1.00
C56    C     0.08281   0.93884   0.20073   0.00000  Uiso   1.00
C57    C     0.02285   0.92984   0.17112   0.00000  Uiso   1.00
C58    C     0.08290   0.99013   0.09829   0.00000  Uiso   1.00
C59    C     0.14110   0.07097   0.98286   0.00000  Uiso   1.00
C60    C     0.24718   0.00335   0.20251   0.00000  Uiso   1.00
C61    C     0.27282   0.88122   0.20607   0.00000  Uiso   1.00
C62    C     0.39537   0.83684   0.17276   0.00000  Uiso   1.00
C63    C     0.39802   0.72308   0.18257   0.00000  Uiso   1.00
C64    C     0.12398   0.03876   0.29489   0.00000  Uiso   1.00
C65    C     0.12139   0.12686   0.33626   0.00000  Uiso   1.00
C66    C     0.99874   0.14575   0.42085   0.00000  Uiso   1.00
C67    C     0.19862   0.00571   0.15910   0.00000  Uiso   1.00
C68    C     0.25876   0.06603   0.08631   0.00000  Uiso   1.00
C69    C     0.19891   0.05712   0.05658   0.00000  Uiso   1.00
H70    H     0.94380   0.82818   0.31157   0.00000  Uiso   1.00
H71    H     0.06983   0.64892   0.28979   0.00000  Uiso   1.00
H72    H     0.79589   0.93890   0.45326   0.00000  Uiso   1.00
H73    H     0.93324   0.87808   0.20335   0.00000  Uiso   1.00
H74    H     0.26061   0.47966   0.24731   0.00000  Uiso   1.00
H75    H     0.68298   0.09114   0.59199   0.00000  Uiso   1.00
H76    H     0.97260   0.96289   0.06500   0.00000  Uiso   1.00
H77    H     0.33734   0.05541   0.17010   0.00000  Uiso   1.00
H78    H     0.48497   0.88860   0.14054   0.00000  Uiso   1.00
H79    H     0.21103   0.17859   0.30402   0.00000  Uiso   1.00
H80    H     0.34838   0.11777   0.05411   0.00000  Uiso   1.00
H81    H     0.59755   0.67420   0.12618   0.00000  Uiso   1.00
H82    H     0.01992   0.28568   0.47087   0.00000  Uiso   1.00
H83    H     0.30954   0.15743   0.94387   0.00000  Uiso   1.00
O84    O     0.51908   0.46311   0.16989   0.00000  Uiso   1.00
O85    O     0.76125   0.26535   0.62209   0.00000  Uiso   1.00
O86    O     0.14122   0.09709   0.93069   0.00000  Uiso   1.00
N87    N     0.31966   0.54833   0.22284   0.00000  Uiso   1.00
N88    N     0.77962   0.12002   0.54511   0.00000  Uiso   1.00
N89    N     0.05036   0.00014   0.05243   0.00000  Uiso   1.00
N90    N     0.50097   0.65301   0.15766   0.00000  Uiso   1.00
N91    N     0.96092   0.22470   0.47993   0.00000  Uiso   1.00
N92    N     0.23167   0.10482   0.98725   0.00000  Uiso   1.00
C93    C     0.03397   0.61976   0.77916   0.00000  Uiso   1.00
C94    C     0.15702   0.68566   0.74770   0.00000  Uiso   1.00
C95    C     0.15948   0.79937   0.75756   0.00000  Uiso   1.00
C96    C     0.28200   0.84391   0.72428   0.00000  Uiso   1.00
C97    C     0.45542   0.95638   0.68180   0.00000  Uiso   1.00
C98    C     0.00818   0.52810   0.83652   0.00000  Uiso   1.00
C99    C     0.88550   0.50934   0.92107   0.00000  Uiso   1.00
C100   C     0.88273   0.42124   0.96255   0.00000  Uiso   1.00
C101   C     0.82505   0.28907   0.05796   0.00000  Uiso   1.00
C102   C     0.08281   0.56116   0.70073   0.00000  Uiso   1.00
C103   C     0.02285   0.57016   0.67112   0.00000  Uiso   1.00
C104   C     0.08290   0.50987   0.59829   0.00000  Uiso   1.00
C105   C     0.14110   0.42903   0.48286   0.00000  Uiso   1.00
C106   C     0.24718   0.49665   0.70251   0.00000  Uiso   1.00
C107   C     0.27282   0.61878   0.70607   0.00000  Uiso   1.00
C108   C     0.39537   0.66316   0.67276   0.00000  Uiso   1.00
C109   C     0.39802   0.77692   0.68257   0.00000  Uiso   1.00
C110   C     0.12398   0.46124   0.79489   0.00000  Uiso   1.00
C111   C     0.12139   0.37314   0.83626   0.00000  Uiso   1.00
C112   C     0.99874   0.35425   0.92085   0.00000  Uiso   1.00
C113   C     0.19862   0.49429   0.65910   0.00000  Uiso   1.00
C114   C     0.25876   0.43397   0.58631   0.00000  Uiso   1.00
C115   C     0.19891   0.44288   0.55658   0.00000  Uiso   1.00
H116   H     0.94380   0.67182   0.81157   0.00000  Uiso   1.00
H117   H     0.06983   0.85108   0.78979   0.00000  Uiso   1.00
H118   H     0.79589   0.56110   0.95326   0.00000  Uiso   1.00
H119   H     0.93324   0.62192   0.70335   0.00000  Uiso   1.00
H120   H     0.26061   0.02034   0.74731   0.00000  Uiso   1.00
H121   H     0.68298   0.40886   0.09199   0.00000  Uiso   1.00
H122   H     0.97260   0.53711   0.56500   0.00000  Uiso   1.00
H123   H     0.33734   0.44459   0.67010   0.00000  Uiso   1.00
H124   H     0.48497   0.61140   0.64054   0.00000  Uiso   1.00
H125   H     0.21103   0.32141   0.80402   0.00000  Uiso   1.00
H126   H     0.34838   0.38223   0.55411   0.00000  Uiso   1.00
H127   H     0.59755   0.82580   0.62618   0.00000  Uiso   1.00
H128   H     0.01992   0.21432   0.97087   0.00000  Uiso   1.00
H129   H     0.30954   0.34257   0.44387   0.00000  Uiso   1.00
O130   O     0.51908   0.03689   0.66989   0.00000  Uiso   1.00
O131   O     0.76125   0.23465   0.12209   0.00000  Uiso   1.00
O132   O     0.14122   0.40291   0.43069   0.00000  Uiso   1.00
N133   N     0.31966   0.95167   0.72284   0.00000  Uiso   1.00
N134   N     0.77962   0.37998   0.04511   0.00000  Uiso   1.00
N135   N     0.05036   0.49986   0.55243   0.00000  Uiso   1.00
N136   N     0.50097   0.84699   0.65766   0.00000  Uiso   1.00
N137   N     0.96092   0.27530   0.97993   0.00000  Uiso   1.00
N138   N     0.23167   0.39518   0.48725   0.00000  Uiso   1.00
C139   C     0.96603   0.11976   0.72084   0.00000  Uiso   1.00
C140   C     0.84298   0.18566   0.75230   0.00000  Uiso   1.00
C141   C     0.84052   0.29937   0.74244   0.00000  Uiso   1.00
C142   C     0.71800   0.34391   0.77572   0.00000  Uiso   1.00
C143   C     0.54458   0.45638   0.81820   0.00000  Uiso   1.00
C144   C     0.99182   0.02810   0.66348   0.00000  Uiso   1.00
C145   C     0.11450   0.00934   0.57893   0.00000  Uiso   1.00
C146   C     0.11727   0.92124   0.53745   0.00000  Uiso   1.00
C147   C     0.17495   0.78907   0.44204   0.00000  Uiso   1.00
C148   C     0.91719   0.06116   0.79927   0.00000  Uiso   1.00
C149   C     0.97715   0.07016   0.82888   0.00000  Uiso   1.00
C150   C     0.91710   0.00987   0.90171   0.00000  Uiso   1.00
C151   C     0.85890   0.92903   0.01714   0.00000  Uiso   1.00
C152   C     0.75282   0.99665   0.79749   0.00000  Uiso   1.00
C153   C     0.72718   0.11878   0.79393   0.00000  Uiso   1.00
C154   C     0.60463   0.16316   0.82724   0.00000  Uiso   1.00
C155   C     0.60198   0.27692   0.81743   0.00000  Uiso   1.00
C156   C     0.87602   0.96124   0.70511   0.00000  Uiso   1.00
C157   C     0.87861   0.87314   0.66374   0.00000  Uiso   1.00
C158   C     0.00126   0.85425   0.57915   0.00000  Uiso   1.00
C159   C     0.80138   0.99429   0.84090   0.00000  Uiso   1.00
C160   C     0.74124   0.93397   0.91369   0.00000  Uiso   1.00
C161   C     0.80109   0.94288   0.94342   0.00000  Uiso   1.00
H162   H     0.05620   0.17182   0.68843   0.00000  Uiso   1.00
H163   H     0.93017   0.35108   0.71021   0.00000  Uiso   1.00
H164   H     0.20411   0.06110   0.54674   0.00000  Uiso   1.00
H165   H     0.06676   0.12192   0.79665   0.00000  Uiso   1.00
H166   H     0.73939   0.52034   0.75269   0.00000  Uiso   1.00
H167   H     0.31702   0.90886   0.40801   0.00000  Uiso   1.00
H168   H     0.02740   0.03711   0.93500   0.00000  Uiso   1.00
H169   H     0.66266   0.94459   0.82990   0.00000  Uiso   1.00
H170   H     0.51503   0.11140   0.85946   0.00000  Uiso   1.00
H171   H     0.78897   0.82141   0.69598   0.00000  Uiso   1.00
H172   H     0.65162   0.88223   0.94589   0.00000  Uiso   1.00
H173   H     0.40245   0.32580   0.87382   0.00000  Uiso   1.00
H174   H     0.98008   0.71432   0.52913   0.00000  Uiso   1.00
H175   H     0.69046   0.84257   0.05613   0.00000  Uiso   1.00
O176   O     0.48092   0.53689   0.83011   0.00000  Uiso   1.00
O177   O     0.23875   0.73465   0.37791   0.00000  Uiso   1.00
O178   O     0.85878   0.90291   0.06931   0.00000  Uiso   1.00
N179   N     0.68034   0.45167   0.77716   0.00000  Uiso   1.00
N180   N     0.22038   0.87998   0.45489   0.00000  Uiso   1.00
N181   N     0.94964   0.99986   0.94757   0.00000  Uiso   1.00
N182   N     0.49903   0.34699   0.84234   0.00000  Uiso   1.00
N183   N     0.03908   0.77530   0.52007   0.00000  Uiso   1.00
N184   N     0.76833   0.89518   0.01275   0.00000  Uiso   1.00
