data_job_01439
_audit_creation_date              2018-12-19
_audit_creation_method            'Materials Studio'
_symmetry_space_group_name_H-M    'P1'
_symmetry_Int_Tables_number       1
_symmetry_cell_setting            triclinic
loop_
_symmetry_equiv_pos_as_xyz
  x,y,z
_cell_length_a                    13.5848
_cell_length_b                    13.5848
_cell_length_c                    28.1207
_cell_angle_alpha                 90.0000
_cell_angle_beta                  90.0000
_cell_angle_gamma                 90.0000
loop_
_atom_site_label
_atom_site_type_symbol
_atom_site_fract_x
_atom_site_fract_y
_atom_site_fract_z
_atom_site_U_iso_or_equiv
_atom_site_adp_type
_atom_site_occupancy
C1     C     0.84520   0.87377   0.60781   0.00000  Uiso   1.00
C2     C     0.89904   0.86705   0.65528   0.00000  Uiso   1.00
C3     C     0.99040   0.82393   0.66260   0.00000  Uiso   1.00
C4     C     0.02708   0.82527   0.70867   0.00000  Uiso   1.00
C5     C     0.11871   0.80826   0.77670   0.00000  Uiso   1.00
C6     C     0.74511   0.82558   0.61560   0.00000  Uiso   1.00
C7     C     0.70704   0.74761   0.58955   0.00000  Uiso   1.00
C8     C     0.61413   0.71406   0.60222   0.00000  Uiso   1.00
C9     C     0.46673   0.63272   0.60863   0.00000  Uiso   1.00
C10    C     0.82475   0.98285   0.59971   0.00000  Uiso   1.00
C11    C     0.85362   0.03712   0.56029   0.00000  Uiso   1.00
C12    C     0.82775   0.13598   0.55957   0.00000  Uiso   1.00
C13    C     0.80401   0.29883   0.54130   0.00000  Uiso   1.00
C14    C     0.74788   0.95285   0.67663   0.00000  Uiso   1.00
C15    C     0.84618   0.91000   0.69266   0.00000  Uiso   1.00
C16    C     0.88273   0.91142   0.73874   0.00000  Uiso   1.00
C17    C     0.97413   0.86831   0.74612   0.00000  Uiso   1.00
C18    C     0.69224   0.86853   0.65298   0.00000  Uiso   1.00
C19    C     0.59936   0.83510   0.66569   0.00000  Uiso   1.00
C20    C     0.56117   0.75709   0.63967   0.00000  Uiso   1.00
C21    C     0.77189   0.02581   0.63709   0.00000  Uiso   1.00
C22    C     0.74595   0.12461   0.63643   0.00000  Uiso   1.00
C23    C     0.77479   0.17901   0.59702   0.00000  Uiso   1.00
H24    H     0.88635   0.84032   0.57870   0.00000  Uiso   1.00
H25    H     0.03129   0.79068   0.63366   0.00000  Uiso   1.00
H26    H     0.74796   0.71439   0.56062   0.00000  Uiso   1.00
H27    H     0.89453   0.00385   0.53137   0.00000  Uiso   1.00
H28    H     0.16865   0.75456   0.71107   0.00000  Uiso   1.00
H29    H     0.57123   0.59371   0.55706   0.00000  Uiso   1.00
H30    H     0.88029   0.20410   0.49537   0.00000  Uiso   1.00
H31    H     0.70672   0.98629   0.70573   0.00000  Uiso   1.00
H32    H     0.84180   0.94467   0.76766   0.00000  Uiso   1.00
H33    H     0.55848   0.86836   0.69462   0.00000  Uiso   1.00
H34    H     0.70505   0.15783   0.66537   0.00000  Uiso   1.00
H35    H     0.01486   0.87953   0.81983   0.00000  Uiso   1.00
H36    H     0.41743   0.71868   0.66582   0.00000  Uiso   1.00
H37    H     0.72650   0.32907   0.60413   0.00000  Uiso   1.00
O38    O     0.18384   0.78700   0.80390   0.00000  Uiso   1.00
O39    O     0.40004   0.57598   0.60183   0.00000  Uiso   1.00
O40    O     0.80553   0.37680   0.52090   0.00000  Uiso   1.00
N41    N     0.11392   0.78970   0.72817   0.00000  Uiso   1.00
N42    N     0.55537   0.63930   0.58418   0.00000  Uiso   1.00
N43    N     0.84430   0.20996   0.52650   0.00000  Uiso   1.00
N44    N     0.03117   0.85695   0.78669   0.00000  Uiso   1.00
N45    N     0.47262   0.70655   0.64270   0.00000  Uiso   1.00
N46    N     0.76155   0.27721   0.58502   0.00000  Uiso   1.00
C47    C     0.15480   0.12623   0.60781   0.00000  Uiso   1.00
C48    C     0.10096   0.13295   0.65528   0.00000  Uiso   1.00
C49    C     0.00960   0.17607   0.66260   0.00000  Uiso   1.00
C50    C     0.97292   0.17473   0.70867   0.00000  Uiso   1.00
C51    C     0.88129   0.19174   0.77670   0.00000  Uiso   1.00
C52    C     0.25489   0.17442   0.61560   0.00000  Uiso   1.00
C53    C     0.29296   0.25239   0.58955   0.00000  Uiso   1.00
C54    C     0.38587   0.28594   0.60222   0.00000  Uiso   1.00
C55    C     0.53327   0.36728   0.60863   0.00000  Uiso   1.00
C56    C     0.17525   0.01715   0.59971   0.00000  Uiso   1.00
C57    C     0.14638   0.96288   0.56029   0.00000  Uiso   1.00
C58    C     0.17225   0.86402   0.55957   0.00000  Uiso   1.00
C59    C     0.19599   0.70117   0.54130   0.00000  Uiso   1.00
C60    C     0.25212   0.04715   0.67663   0.00000  Uiso   1.00
C61    C     0.15382   0.09000   0.69266   0.00000  Uiso   1.00
C62    C     0.11727   0.08858   0.73874   0.00000  Uiso   1.00
C63    C     0.02587   0.13169   0.74612   0.00000  Uiso   1.00
C64    C     0.30776   0.13147   0.65298   0.00000  Uiso   1.00
C65    C     0.40064   0.16490   0.66569   0.00000  Uiso   1.00
C66    C     0.43883   0.24291   0.63967   0.00000  Uiso   1.00
C67    C     0.22811   0.97419   0.63709   0.00000  Uiso   1.00
C68    C     0.25405   0.87539   0.63643   0.00000  Uiso   1.00
C69    C     0.22521   0.82099   0.59702   0.00000  Uiso   1.00
H70    H     0.11365   0.15968   0.57870   0.00000  Uiso   1.00
H71    H     0.96871   0.20932   0.63366   0.00000  Uiso   1.00
H72    H     0.25204   0.28561   0.56062   0.00000  Uiso   1.00
H73    H     0.10547   0.99615   0.53137   0.00000  Uiso   1.00
H74    H     0.83135   0.24544   0.71107   0.00000  Uiso   1.00
H75    H     0.42877   0.40629   0.55706   0.00000  Uiso   1.00
H76    H     0.11971   0.79590   0.49537   0.00000  Uiso   1.00
H77    H     0.29328   0.01371   0.70573   0.00000  Uiso   1.00
H78    H     0.15820   0.05533   0.76766   0.00000  Uiso   1.00
H79    H     0.44152   0.13164   0.69462   0.00000  Uiso   1.00
H80    H     0.29495   0.84217   0.66537   0.00000  Uiso   1.00
H81    H     0.98514   0.12047   0.81983   0.00000  Uiso   1.00
H82    H     0.58257   0.28132   0.66582   0.00000  Uiso   1.00
H83    H     0.27350   0.67093   0.60413   0.00000  Uiso   1.00
O84    O     0.81616   0.21300   0.80390   0.00000  Uiso   1.00
O85    O     0.59996   0.42402   0.60183   0.00000  Uiso   1.00
O86    O     0.19447   0.62320   0.52090   0.00000  Uiso   1.00
N87    N     0.88608   0.21030   0.72817   0.00000  Uiso   1.00
N88    N     0.44463   0.36070   0.58418   0.00000  Uiso   1.00
N89    N     0.15570   0.79004   0.52650   0.00000  Uiso   1.00
N90    N     0.96883   0.14305   0.78669   0.00000  Uiso   1.00
N91    N     0.52738   0.29345   0.64270   0.00000  Uiso   1.00
N92    N     0.23845   0.72279   0.58502   0.00000  Uiso   1.00
C93    C     0.87377   0.15480   0.39219   0.00000  Uiso   1.00
C94    C     0.86705   0.10096   0.34472   0.00000  Uiso   1.00
C95    C     0.82393   0.00960   0.33740   0.00000  Uiso   1.00
C96    C     0.82527   0.97292   0.29133   0.00000  Uiso   1.00
C97    C     0.80826   0.88129   0.22330   0.00000  Uiso   1.00
C98    C     0.82558   0.25489   0.38440   0.00000  Uiso   1.00
C99    C     0.74761   0.29296   0.41045   0.00000  Uiso   1.00
C100   C     0.71406   0.38587   0.39778   0.00000  Uiso   1.00
C101   C     0.63272   0.53327   0.39137   0.00000  Uiso   1.00
C102   C     0.98285   0.17525   0.40029   0.00000  Uiso   1.00
C103   C     0.03712   0.14638   0.43971   0.00000  Uiso   1.00
C104   C     0.13598   0.17225   0.44043   0.00000  Uiso   1.00
C105   C     0.29883   0.19599   0.45870   0.00000  Uiso   1.00
C106   C     0.95285   0.25212   0.32337   0.00000  Uiso   1.00
C107   C     0.91000   0.15382   0.30734   0.00000  Uiso   1.00
C108   C     0.91142   0.11727   0.26126   0.00000  Uiso   1.00
C109   C     0.86831   0.02587   0.25388   0.00000  Uiso   1.00
C110   C     0.86853   0.30776   0.34702   0.00000  Uiso   1.00
C111   C     0.83510   0.40064   0.33431   0.00000  Uiso   1.00
C112   C     0.75709   0.43883   0.36033   0.00000  Uiso   1.00
C113   C     0.02581   0.22811   0.36291   0.00000  Uiso   1.00
C114   C     0.12461   0.25405   0.36357   0.00000  Uiso   1.00
C115   C     0.17901   0.22521   0.40298   0.00000  Uiso   1.00
H116   H     0.84032   0.11365   0.42130   0.00000  Uiso   1.00
H117   H     0.79068   0.96871   0.36634   0.00000  Uiso   1.00
H118   H     0.71439   0.25204   0.43938   0.00000  Uiso   1.00
H119   H     0.00385   0.10547   0.46863   0.00000  Uiso   1.00
H120   H     0.75456   0.83135   0.28893   0.00000  Uiso   1.00
H121   H     0.59371   0.42877   0.44294   0.00000  Uiso   1.00
H122   H     0.20410   0.11971   0.50463   0.00000  Uiso   1.00
H123   H     0.98629   0.29328   0.29427   0.00000  Uiso   1.00
H124   H     0.94467   0.15820   0.23234   0.00000  Uiso   1.00
H125   H     0.86836   0.44152   0.30538   0.00000  Uiso   1.00
H126   H     0.15783   0.29495   0.33463   0.00000  Uiso   1.00
H127   H     0.87953   0.98514   0.18017   0.00000  Uiso   1.00
H128   H     0.71868   0.58257   0.33418   0.00000  Uiso   1.00
H129   H     0.32907   0.27350   0.39587   0.00000  Uiso   1.00
O130   O     0.78700   0.81616   0.19610   0.00000  Uiso   1.00
O131   O     0.57598   0.59996   0.39817   0.00000  Uiso   1.00
O132   O     0.37680   0.19447   0.47910   0.00000  Uiso   1.00
N133   N     0.78970   0.88608   0.27183   0.00000  Uiso   1.00
N134   N     0.63930   0.44463   0.41582   0.00000  Uiso   1.00
N135   N     0.20996   0.15570   0.47350   0.00000  Uiso   1.00
N136   N     0.85695   0.96883   0.21331   0.00000  Uiso   1.00
N137   N     0.70655   0.52738   0.35730   0.00000  Uiso   1.00
N138   N     0.27721   0.23845   0.41498   0.00000  Uiso   1.00
C139   C     0.12623   0.84520   0.39219   0.00000  Uiso   1.00
C140   C     0.13295   0.89904   0.34472   0.00000  Uiso   1.00
C141   C     0.17607   0.99040   0.33740   0.00000  Uiso   1.00
C142   C     0.17473   0.02708   0.29133   0.00000  Uiso   1.00
C143   C     0.19174   0.11871   0.22330   0.00000  Uiso   1.00
C144   C     0.17442   0.74511   0.38440   0.00000  Uiso   1.00
C145   C     0.25239   0.70704   0.41045   0.00000  Uiso   1.00
C146   C     0.28594   0.61413   0.39778   0.00000  Uiso   1.00
C147   C     0.36728   0.46673   0.39137   0.00000  Uiso   1.00
C148   C     0.01715   0.82475   0.40029   0.00000  Uiso   1.00
C149   C     0.96288   0.85362   0.43971   0.00000  Uiso   1.00
C150   C     0.86402   0.82775   0.44043   0.00000  Uiso   1.00
C151   C     0.70117   0.80401   0.45870   0.00000  Uiso   1.00
C152   C     0.04715   0.74788   0.32337   0.00000  Uiso   1.00
C153   C     0.09000   0.84618   0.30734   0.00000  Uiso   1.00
C154   C     0.08858   0.88273   0.26126   0.00000  Uiso   1.00
C155   C     0.13169   0.97413   0.25388   0.00000  Uiso   1.00
C156   C     0.13147   0.69224   0.34702   0.00000  Uiso   1.00
C157   C     0.16490   0.59936   0.33431   0.00000  Uiso   1.00
C158   C     0.24291   0.56117   0.36033   0.00000  Uiso   1.00
C159   C     0.97419   0.77189   0.36291   0.00000  Uiso   1.00
C160   C     0.87539   0.74595   0.36357   0.00000  Uiso   1.00
C161   C     0.82099   0.77479   0.40298   0.00000  Uiso   1.00
H162   H     0.15968   0.88635   0.42130   0.00000  Uiso   1.00
H163   H     0.20932   0.03129   0.36634   0.00000  Uiso   1.00
H164   H     0.28561   0.74796   0.43938   0.00000  Uiso   1.00
H165   H     0.99615   0.89453   0.46863   0.00000  Uiso   1.00
H166   H     0.24544   0.16865   0.28893   0.00000  Uiso   1.00
H167   H     0.40629   0.57123   0.44294   0.00000  Uiso   1.00
H168   H     0.79590   0.88029   0.50463   0.00000  Uiso   1.00
H169   H     0.01371   0.70672   0.29427   0.00000  Uiso   1.00
H170   H     0.05533   0.84180   0.23234   0.00000  Uiso   1.00
H171   H     0.13164   0.55848   0.30538   0.00000  Uiso   1.00
H172   H     0.84217   0.70505   0.33463   0.00000  Uiso   1.00
H173   H     0.12047   0.01486   0.18017   0.00000  Uiso   1.00
H174   H     0.28132   0.41743   0.33418   0.00000  Uiso   1.00
H175   H     0.67093   0.72650   0.39587   0.00000  Uiso   1.00
O176   O     0.21300   0.18384   0.19610   0.00000  Uiso   1.00
O177   O     0.42402   0.40004   0.39817   0.00000  Uiso   1.00
O178   O     0.62320   0.80553   0.47910   0.00000  Uiso   1.00
N179   N     0.21030   0.11392   0.27183   0.00000  Uiso   1.00
N180   N     0.36070   0.55537   0.41582   0.00000  Uiso   1.00
N181   N     0.79004   0.84430   0.47350   0.00000  Uiso   1.00
N182   N     0.14305   0.03117   0.21331   0.00000  Uiso   1.00
N183   N     0.29345   0.47262   0.35730   0.00000  Uiso   1.00
N184   N     0.72279   0.76155   0.41498   0.00000  Uiso   1.00
C185   C     0.34520   0.62623   0.10781   0.00000  Uiso   1.00
C186   C     0.39904   0.63295   0.15528   0.00000  Uiso   1.00
C187   C     0.49040   0.67607   0.16260   0.00000  Uiso   1.00
C188   C     0.52708   0.67473   0.20867   0.00000  Uiso   1.00
C189   C     0.61871   0.69174   0.27670   0.00000  Uiso   1.00
C190   C     0.24511   0.67442   0.11560   0.00000  Uiso   1.00
C191   C     0.20704   0.75239   0.08955   0.00000  Uiso   1.00
C192   C     0.11413   0.78594   0.10222   0.00000  Uiso   1.00
C193   C     0.96673   0.86728   0.10863   0.00000  Uiso   1.00
C194   C     0.32475   0.51715   0.09971   0.00000  Uiso   1.00
C195   C     0.35362   0.46288   0.06029   0.00000  Uiso   1.00
C196   C     0.32775   0.36402   0.05957   0.00000  Uiso   1.00
C197   C     0.30401   0.20117   0.04130   0.00000  Uiso   1.00
C198   C     0.24788   0.54715   0.17663   0.00000  Uiso   1.00
C199   C     0.34618   0.59000   0.19266   0.00000  Uiso   1.00
C200   C     0.38273   0.58858   0.23874   0.00000  Uiso   1.00
C201   C     0.47413   0.63169   0.24612   0.00000  Uiso   1.00
C202   C     0.19224   0.63147   0.15298   0.00000  Uiso   1.00
C203   C     0.09936   0.66490   0.16569   0.00000  Uiso   1.00
C204   C     0.06117   0.74291   0.13967   0.00000  Uiso   1.00
C205   C     0.27189   0.47419   0.13709   0.00000  Uiso   1.00
C206   C     0.24595   0.37539   0.13643   0.00000  Uiso   1.00
C207   C     0.27479   0.32099   0.09702   0.00000  Uiso   1.00
H208   H     0.38635   0.65968   0.07870   0.00000  Uiso   1.00
H209   H     0.53129   0.70932   0.13366   0.00000  Uiso   1.00
H210   H     0.24796   0.78561   0.06062   0.00000  Uiso   1.00
H211   H     0.39453   0.49615   0.03137   0.00000  Uiso   1.00
H212   H     0.66865   0.74544   0.21107   0.00000  Uiso   1.00
H213   H     0.07123   0.90629   0.05706   0.00000  Uiso   1.00
H214   H     0.38029   0.29590   0.99537   0.00000  Uiso   1.00
H215   H     0.20672   0.51371   0.20573   0.00000  Uiso   1.00
H216   H     0.34180   0.55533   0.26766   0.00000  Uiso   1.00
H217   H     0.05848   0.63164   0.19462   0.00000  Uiso   1.00
H218   H     0.20505   0.34217   0.16537   0.00000  Uiso   1.00
H219   H     0.51486   0.62047   0.31983   0.00000  Uiso   1.00
H220   H     0.91743   0.78132   0.16582   0.00000  Uiso   1.00
H221   H     0.22650   0.17093   0.10413   0.00000  Uiso   1.00
O222   O     0.68384   0.71300   0.30390   0.00000  Uiso   1.00
O223   O     0.90004   0.92402   0.10183   0.00000  Uiso   1.00
O224   O     0.30553   0.12320   0.02090   0.00000  Uiso   1.00
N225   N     0.61392   0.71030   0.22817   0.00000  Uiso   1.00
N226   N     0.05537   0.86070   0.08418   0.00000  Uiso   1.00
N227   N     0.34430   0.29004   0.02650   0.00000  Uiso   1.00
N228   N     0.53117   0.64305   0.28669   0.00000  Uiso   1.00
N229   N     0.97262   0.79345   0.14270   0.00000  Uiso   1.00
N230   N     0.26155   0.22279   0.08502   0.00000  Uiso   1.00
C231   C     0.65480   0.37377   0.10781   0.00000  Uiso   1.00
C232   C     0.60096   0.36705   0.15528   0.00000  Uiso   1.00
C233   C     0.50960   0.32393   0.16260   0.00000  Uiso   1.00
C234   C     0.47292   0.32527   0.20867   0.00000  Uiso   1.00
C235   C     0.38129   0.30826   0.27670   0.00000  Uiso   1.00
C236   C     0.75489   0.32558   0.11560   0.00000  Uiso   1.00
C237   C     0.79296   0.24761   0.08955   0.00000  Uiso   1.00
C238   C     0.88587   0.21406   0.10222   0.00000  Uiso   1.00
C239   C     0.03327   0.13272   0.10863   0.00000  Uiso   1.00
C240   C     0.67525   0.48285   0.09971   0.00000  Uiso   1.00
C241   C     0.64638   0.53712   0.06029   0.00000  Uiso   1.00
C242   C     0.67225   0.63598   0.05957   0.00000  Uiso   1.00
C243   C     0.69599   0.79883   0.04130   0.00000  Uiso   1.00
C244   C     0.75212   0.45285   0.17663   0.00000  Uiso   1.00
C245   C     0.65382   0.41000   0.19266   0.00000  Uiso   1.00
C246   C     0.61727   0.41142   0.23874   0.00000  Uiso   1.00
C247   C     0.52587   0.36831   0.24612   0.00000  Uiso   1.00
C248   C     0.80776   0.36853   0.15298   0.00000  Uiso   1.00
C249   C     0.90064   0.33510   0.16569   0.00000  Uiso   1.00
C250   C     0.93883   0.25709   0.13967   0.00000  Uiso   1.00
C251   C     0.72811   0.52581   0.13709   0.00000  Uiso   1.00
C252   C     0.75405   0.62461   0.13643   0.00000  Uiso   1.00
C253   C     0.72521   0.67901   0.09702   0.00000  Uiso   1.00
H254   H     0.61365   0.34032   0.07870   0.00000  Uiso   1.00
H255   H     0.46871   0.29068   0.13366   0.00000  Uiso   1.00
H256   H     0.75204   0.21439   0.06062   0.00000  Uiso   1.00
H257   H     0.60547   0.50385   0.03137   0.00000  Uiso   1.00
H258   H     0.33135   0.25456   0.21107   0.00000  Uiso   1.00
H259   H     0.92877   0.09371   0.05706   0.00000  Uiso   1.00
H260   H     0.61971   0.70410   0.99537   0.00000  Uiso   1.00
H261   H     0.79328   0.48629   0.20573   0.00000  Uiso   1.00
H262   H     0.65820   0.44467   0.26766   0.00000  Uiso   1.00
H263   H     0.94152   0.36836   0.19462   0.00000  Uiso   1.00
H264   H     0.79495   0.65783   0.16537   0.00000  Uiso   1.00
H265   H     0.48514   0.37953   0.31983   0.00000  Uiso   1.00
H266   H     0.08257   0.21868   0.16582   0.00000  Uiso   1.00
H267   H     0.77350   0.82907   0.10413   0.00000  Uiso   1.00
O268   O     0.31616   0.28700   0.30390   0.00000  Uiso   1.00
O269   O     0.09996   0.07598   0.10183   0.00000  Uiso   1.00
O270   O     0.69447   0.87680   0.02090   0.00000  Uiso   1.00
N271   N     0.38608   0.28970   0.22817   0.00000  Uiso   1.00
N272   N     0.94463   0.13930   0.08418   0.00000  Uiso   1.00
N273   N     0.65570   0.70996   0.02650   0.00000  Uiso   1.00
N274   N     0.46883   0.35695   0.28669   0.00000  Uiso   1.00
N275   N     0.02738   0.20655   0.14270   0.00000  Uiso   1.00
N276   N     0.73845   0.77721   0.08502   0.00000  Uiso   1.00
C277   C     0.37377   0.34520   0.89219   0.00000  Uiso   1.00
C278   C     0.36705   0.39904   0.84472   0.00000  Uiso   1.00
C279   C     0.32393   0.49040   0.83740   0.00000  Uiso   1.00
C280   C     0.32527   0.52708   0.79133   0.00000  Uiso   1.00
C281   C     0.30826   0.61871   0.72330   0.00000  Uiso   1.00
C282   C     0.32558   0.24511   0.88440   0.00000  Uiso   1.00
C283   C     0.24761   0.20704   0.91045   0.00000  Uiso   1.00
C284   C     0.21406   0.11413   0.89778   0.00000  Uiso   1.00
C285   C     0.13272   0.96673   0.89137   0.00000  Uiso   1.00
C286   C     0.48285   0.32475   0.90029   0.00000  Uiso   1.00
C287   C     0.53712   0.35362   0.93971   0.00000  Uiso   1.00
C288   C     0.63598   0.32775   0.94043   0.00000  Uiso   1.00
C289   C     0.79883   0.30401   0.95870   0.00000  Uiso   1.00
C290   C     0.45285   0.24788   0.82337   0.00000  Uiso   1.00
C291   C     0.41000   0.34618   0.80734   0.00000  Uiso   1.00
C292   C     0.41142   0.38273   0.76126   0.00000  Uiso   1.00
C293   C     0.36831   0.47413   0.75388   0.00000  Uiso   1.00
C294   C     0.36853   0.19224   0.84702   0.00000  Uiso   1.00
C295   C     0.33510   0.09936   0.83431   0.00000  Uiso   1.00
C296   C     0.25709   0.06117   0.86033   0.00000  Uiso   1.00
C297   C     0.52581   0.27189   0.86291   0.00000  Uiso   1.00
C298   C     0.62461   0.24595   0.86357   0.00000  Uiso   1.00
C299   C     0.67901   0.27479   0.90298   0.00000  Uiso   1.00
H300   H     0.34032   0.38635   0.92130   0.00000  Uiso   1.00
H301   H     0.29068   0.53129   0.86634   0.00000  Uiso   1.00
H302   H     0.21439   0.24796   0.93938   0.00000  Uiso   1.00
H303   H     0.50385   0.39453   0.96863   0.00000  Uiso   1.00
H304   H     0.25456   0.66865   0.78893   0.00000  Uiso   1.00
H305   H     0.09371   0.07123   0.94294   0.00000  Uiso   1.00
H306   H     0.70410   0.38029   0.00463   0.00000  Uiso   1.00
H307   H     0.48629   0.20672   0.79427   0.00000  Uiso   1.00
H308   H     0.44467   0.34180   0.73234   0.00000  Uiso   1.00
H309   H     0.36836   0.05848   0.80538   0.00000  Uiso   1.00
H310   H     0.65783   0.20505   0.83463   0.00000  Uiso   1.00
H311   H     0.37953   0.51486   0.68017   0.00000  Uiso   1.00
H312   H     0.21868   0.91743   0.83418   0.00000  Uiso   1.00
H313   H     0.82907   0.22650   0.89587   0.00000  Uiso   1.00
O314   O     0.28700   0.68384   0.69610   0.00000  Uiso   1.00
O315   O     0.07598   0.90004   0.89817   0.00000  Uiso   1.00
O316   O     0.87680   0.30553   0.97910   0.00000  Uiso   1.00
N317   N     0.28970   0.61392   0.77183   0.00000  Uiso   1.00
N318   N     0.13930   0.05537   0.91582   0.00000  Uiso   1.00
N319   N     0.70996   0.34430   0.97350   0.00000  Uiso   1.00
N320   N     0.35695   0.53117   0.71331   0.00000  Uiso   1.00
N321   N     0.20655   0.97262   0.85730   0.00000  Uiso   1.00
N322   N     0.77721   0.26155   0.91498   0.00000  Uiso   1.00
C323   C     0.62623   0.65480   0.89219   0.00000  Uiso   1.00
C324   C     0.63295   0.60096   0.84472   0.00000  Uiso   1.00
C325   C     0.67607   0.50960   0.83740   0.00000  Uiso   1.00
C326   C     0.67473   0.47292   0.79133   0.00000  Uiso   1.00
C327   C     0.69174   0.38129   0.72330   0.00000  Uiso   1.00
C328   C     0.67442   0.75489   0.88440   0.00000  Uiso   1.00
C329   C     0.75239   0.79296   0.91045   0.00000  Uiso   1.00
C330   C     0.78594   0.88587   0.89778   0.00000  Uiso   1.00
C331   C     0.86728   0.03327   0.89137   0.00000  Uiso   1.00
C332   C     0.51715   0.67525   0.90029   0.00000  Uiso   1.00
C333   C     0.46288   0.64638   0.93971   0.00000  Uiso   1.00
C334   C     0.36402   0.67225   0.94043   0.00000  Uiso   1.00
C335   C     0.20117   0.69599   0.95870   0.00000  Uiso   1.00
C336   C     0.54715   0.75212   0.82337   0.00000  Uiso   1.00
C337   C     0.59000   0.65382   0.80734   0.00000  Uiso   1.00
C338   C     0.58858   0.61727   0.76126   0.00000  Uiso   1.00
C339   C     0.63169   0.52587   0.75388   0.00000  Uiso   1.00
C340   C     0.63147   0.80776   0.84702   0.00000  Uiso   1.00
C341   C     0.66490   0.90064   0.83431   0.00000  Uiso   1.00
C342   C     0.74291   0.93883   0.86033   0.00000  Uiso   1.00
C343   C     0.47419   0.72811   0.86291   0.00000  Uiso   1.00
C344   C     0.37539   0.75405   0.86357   0.00000  Uiso   1.00
C345   C     0.32099   0.72521   0.90298   0.00000  Uiso   1.00
H346   H     0.65968   0.61365   0.92130   0.00000  Uiso   1.00
H347   H     0.70932   0.46871   0.86634   0.00000  Uiso   1.00
H348   H     0.78561   0.75204   0.93938   0.00000  Uiso   1.00
H349   H     0.49615   0.60547   0.96863   0.00000  Uiso   1.00
H350   H     0.74544   0.33135   0.78893   0.00000  Uiso   1.00
H351   H     0.90629   0.92877   0.94294   0.00000  Uiso   1.00
H352   H     0.29590   0.61971   0.00463   0.00000  Uiso   1.00
H353   H     0.51371   0.79328   0.79427   0.00000  Uiso   1.00
H354   H     0.55533   0.65820   0.73234   0.00000  Uiso   1.00
H355   H     0.63164   0.94152   0.80538   0.00000  Uiso   1.00
H356   H     0.34217   0.79495   0.83463   0.00000  Uiso   1.00
H357   H     0.62047   0.48514   0.68017   0.00000  Uiso   1.00
H358   H     0.78132   0.08257   0.83418   0.00000  Uiso   1.00
H359   H     0.17093   0.77350   0.89587   0.00000  Uiso   1.00
O360   O     0.71300   0.31616   0.69610   0.00000  Uiso   1.00
O361   O     0.92402   0.09996   0.89817   0.00000  Uiso   1.00
O362   O     0.12320   0.69447   0.97910   0.00000  Uiso   1.00
N363   N     0.71030   0.38608   0.77183   0.00000  Uiso   1.00
N364   N     0.86070   0.94463   0.91582   0.00000  Uiso   1.00
N365   N     0.29004   0.65570   0.97350   0.00000  Uiso   1.00
N366   N     0.64305   0.46883   0.71331   0.00000  Uiso   1.00
N367   N     0.79345   0.02738   0.85730   0.00000  Uiso   1.00
N368   N     0.22279   0.73845   0.91498   0.00000  Uiso   1.00
