data_job_00888
_audit_creation_date              2018-12-19
_audit_creation_method            'Materials Studio'
_symmetry_space_group_name_H-M    'P1'
_symmetry_Int_Tables_number       1
_symmetry_cell_setting            triclinic
loop_
_symmetry_equiv_pos_as_xyz
  x,y,z
_cell_length_a                    18.8459
_cell_length_b                    8.7775
_cell_length_c                    31.8948
_cell_angle_alpha                 90.0000
_cell_angle_beta                  90.0000
_cell_angle_gamma                 90.0000
loop_
_atom_site_label
_atom_site_type_symbol
_atom_site_fract_x
_atom_site_fract_y
_atom_site_fract_z
_atom_site_U_iso_or_equiv
_atom_site_adp_type
_atom_site_occupancy
C1     C     0.94726   0.86056   0.64389   0.00000  Uiso   1.00
C2     C     0.90738   0.88310   0.60276   0.00000  Uiso   1.00
C3     C     0.88224   0.02091   0.58745   0.00000  Uiso   1.00
C4     C     0.84708   0.01761   0.54921   0.00000  Uiso   1.00
C5     C     0.78658   0.07334   0.48871   0.00000  Uiso   1.00
C6     C     0.90504   0.74276   0.66865   0.00000  Uiso   1.00
C7     C     0.87795   0.76257   0.70874   0.00000  Uiso   1.00
C8     C     0.84082   0.64111   0.72596   0.00000  Uiso   1.00
C9     C     0.77675   0.47892   0.76777   0.00000  Uiso   1.00
C10    C     0.01720   0.78385   0.63239   0.00000  Uiso   1.00
C11    C     0.08441   0.83817   0.64201   0.00000  Uiso   1.00
C12    C     0.14172   0.75128   0.62872   0.00000  Uiso   1.00
C13    C     0.25179   0.65288   0.61423   0.00000  Uiso   1.00
C14    C     0.92952   0.60963   0.60320   0.00000  Uiso   1.00
C15    C     0.89774   0.74681   0.58066   0.00000  Uiso   1.00
C16    C     0.86261   0.74329   0.54243   0.00000  Uiso   1.00
C17    C     0.83742   0.88107   0.52707   0.00000  Uiso   1.00
C18    C     0.89540   0.60647   0.64654   0.00000  Uiso   1.00
C19    C     0.85831   0.48495   0.66371   0.00000  Uiso   1.00
C20    C     0.83117   0.50457   0.70382   0.00000  Uiso   1.00
C21    C     0.00756   0.64755   0.61028   0.00000  Uiso   1.00
C22    C     0.06478   0.56056   0.59698   0.00000  Uiso   1.00
C23    C     0.13206   0.61474   0.60657   0.00000  Uiso   1.00
H24    H     0.95476   0.96666   0.66111   0.00000  Uiso   1.00
H25    H     0.88970   0.12636   0.60457   0.00000  Uiso   1.00
H26    H     0.88542   0.86805   0.72584   0.00000  Uiso   1.00
H27    H     0.09185   0.94365   0.65911   0.00000  Uiso   1.00
H28    H     0.81330   0.24331   0.53215   0.00000  Uiso   1.00
H29    H     0.80429   0.69862   0.78786   0.00000  Uiso   1.00
H30    H     0.23959   0.85803   0.64716   0.00000  Uiso   1.00
H31    H     0.92201   0.50351   0.58599   0.00000  Uiso   1.00
H32    H     0.85516   0.63780   0.52533   0.00000  Uiso   1.00
H33    H     0.85087   0.37949   0.64660   0.00000  Uiso   1.00
H34    H     0.05730   0.45509   0.57987   0.00000  Uiso   1.00
H35    H     0.78526   0.84677   0.46784   0.00000  Uiso   1.00
H36    H     0.77625   0.30209   0.72354   0.00000  Uiso   1.00
H37    H     0.21154   0.46150   0.58284   0.00000  Uiso   1.00
O38    O     0.75587   0.14173   0.46145   0.00000  Uiso   1.00
O39    O     0.74406   0.42712   0.79693   0.00000  Uiso   1.00
O40    O     0.31516   0.63627   0.61233   0.00000  Uiso   1.00
N41    N     0.81589   0.13156   0.52534   0.00000  Uiso   1.00
N42    N     0.80745   0.62232   0.76440   0.00000  Uiso   1.00
N43    N     0.21442   0.77133   0.63287   0.00000  Uiso   1.00
N44    N     0.80080   0.91819   0.49073   0.00000  Uiso   1.00
N45    N     0.79236   0.40895   0.72979   0.00000  Uiso   1.00
N46    N     0.19933   0.55796   0.59826   0.00000  Uiso   1.00
C47    C     0.55274   0.63944   0.14389   0.00000  Uiso   1.00
C48    C     0.59262   0.61690   0.10276   0.00000  Uiso   1.00
C49    C     0.61776   0.47909   0.08745   0.00000  Uiso   1.00
C50    C     0.65292   0.48239   0.04921   0.00000  Uiso   1.00
C51    C     0.71342   0.42666   0.98871   0.00000  Uiso   1.00
C52    C     0.59496   0.75724   0.16865   0.00000  Uiso   1.00
C53    C     0.62205   0.73743   0.20874   0.00000  Uiso   1.00
C54    C     0.65918   0.85889   0.22596   0.00000  Uiso   1.00
C55    C     0.72325   0.02108   0.26777   0.00000  Uiso   1.00
C56    C     0.48280   0.71615   0.13239   0.00000  Uiso   1.00
C57    C     0.41559   0.66183   0.14201   0.00000  Uiso   1.00
C58    C     0.35828   0.74872   0.12872   0.00000  Uiso   1.00
C59    C     0.24821   0.84712   0.11423   0.00000  Uiso   1.00
C60    C     0.57048   0.89037   0.10320   0.00000  Uiso   1.00
C61    C     0.60226   0.75319   0.08066   0.00000  Uiso   1.00
C62    C     0.63739   0.75671   0.04243   0.00000  Uiso   1.00
C63    C     0.66258   0.61893   0.02707   0.00000  Uiso   1.00
C64    C     0.60460   0.89353   0.14654   0.00000  Uiso   1.00
C65    C     0.64169   0.01505   0.16371   0.00000  Uiso   1.00
C66    C     0.66883   0.99543   0.20382   0.00000  Uiso   1.00
C67    C     0.49244   0.85245   0.11028   0.00000  Uiso   1.00
C68    C     0.43522   0.93944   0.09698   0.00000  Uiso   1.00
C69    C     0.36794   0.88526   0.10657   0.00000  Uiso   1.00
H70    H     0.54524   0.53334   0.16111   0.00000  Uiso   1.00
H71    H     0.61030   0.37364   0.10457   0.00000  Uiso   1.00
H72    H     0.61458   0.63195   0.22584   0.00000  Uiso   1.00
H73    H     0.40815   0.55635   0.15911   0.00000  Uiso   1.00
H74    H     0.68670   0.25669   0.03215   0.00000  Uiso   1.00
H75    H     0.69571   0.80138   0.28786   0.00000  Uiso   1.00
H76    H     0.26041   0.64197   0.14716   0.00000  Uiso   1.00
H77    H     0.57799   0.99649   0.08599   0.00000  Uiso   1.00
H78    H     0.64484   0.86220   0.02533   0.00000  Uiso   1.00
H79    H     0.64913   0.12051   0.14660   0.00000  Uiso   1.00
H80    H     0.44270   0.04491   0.07987   0.00000  Uiso   1.00
H81    H     0.71474   0.65323   0.96784   0.00000  Uiso   1.00
H82    H     0.72375   0.19791   0.22354   0.00000  Uiso   1.00
H83    H     0.28846   0.03850   0.08284   0.00000  Uiso   1.00
O84    O     0.74413   0.35827   0.96145   0.00000  Uiso   1.00
O85    O     0.75594   0.07288   0.29693   0.00000  Uiso   1.00
O86    O     0.18484   0.86373   0.11233   0.00000  Uiso   1.00
N87    N     0.68411   0.36844   0.02534   0.00000  Uiso   1.00
N88    N     0.69255   0.87768   0.26440   0.00000  Uiso   1.00
N89    N     0.28558   0.72867   0.13287   0.00000  Uiso   1.00
N90    N     0.69920   0.58181   0.99073   0.00000  Uiso   1.00
N91    N     0.70764   0.09105   0.22979   0.00000  Uiso   1.00
N92    N     0.30067   0.94204   0.09826   0.00000  Uiso   1.00
C93    C     0.05274   0.86056   0.85611   0.00000  Uiso   1.00
C94    C     0.09262   0.88310   0.89724   0.00000  Uiso   1.00
C95    C     0.11776   0.02091   0.91255   0.00000  Uiso   1.00
C96    C     0.15292   0.01761   0.95079   0.00000  Uiso   1.00
C97    C     0.21342   0.07334   0.01129   0.00000  Uiso   1.00
C98    C     0.09496   0.74276   0.83135   0.00000  Uiso   1.00
C99    C     0.12205   0.76257   0.79126   0.00000  Uiso   1.00
C100   C     0.15918   0.64111   0.77404   0.00000  Uiso   1.00
C101   C     0.22325   0.47892   0.73223   0.00000  Uiso   1.00
C102   C     0.98280   0.78385   0.86761   0.00000  Uiso   1.00
C103   C     0.91559   0.83817   0.85799   0.00000  Uiso   1.00
C104   C     0.85828   0.75128   0.87128   0.00000  Uiso   1.00
C105   C     0.74821   0.65288   0.88577   0.00000  Uiso   1.00
C106   C     0.07048   0.60963   0.89680   0.00000  Uiso   1.00
C107   C     0.10226   0.74681   0.91934   0.00000  Uiso   1.00
C108   C     0.13739   0.74329   0.95757   0.00000  Uiso   1.00
C109   C     0.16258   0.88107   0.97293   0.00000  Uiso   1.00
C110   C     0.10460   0.60647   0.85346   0.00000  Uiso   1.00
C111   C     0.14169   0.48495   0.83629   0.00000  Uiso   1.00
C112   C     0.16883   0.50457   0.79618   0.00000  Uiso   1.00
C113   C     0.99244   0.64755   0.88972   0.00000  Uiso   1.00
C114   C     0.93522   0.56056   0.90302   0.00000  Uiso   1.00
C115   C     0.86794   0.61474   0.89343   0.00000  Uiso   1.00
H116   H     0.04524   0.96666   0.83889   0.00000  Uiso   1.00
H117   H     0.11030   0.12636   0.89543   0.00000  Uiso   1.00
H118   H     0.11458   0.86805   0.77416   0.00000  Uiso   1.00
H119   H     0.90815   0.94365   0.84089   0.00000  Uiso   1.00
H120   H     0.18670   0.24331   0.96785   0.00000  Uiso   1.00
H121   H     0.19571   0.69862   0.71214   0.00000  Uiso   1.00
H122   H     0.76041   0.85803   0.85284   0.00000  Uiso   1.00
H123   H     0.07799   0.50351   0.91401   0.00000  Uiso   1.00
H124   H     0.14484   0.63780   0.97467   0.00000  Uiso   1.00
H125   H     0.14913   0.37949   0.85340   0.00000  Uiso   1.00
H126   H     0.94270   0.45509   0.92013   0.00000  Uiso   1.00
H127   H     0.21474   0.84677   0.03216   0.00000  Uiso   1.00
H128   H     0.22375   0.30209   0.77646   0.00000  Uiso   1.00
H129   H     0.78846   0.46150   0.91716   0.00000  Uiso   1.00
O130   O     0.24413   0.14173   0.03855   0.00000  Uiso   1.00
O131   O     0.25594   0.42712   0.70307   0.00000  Uiso   1.00
O132   O     0.68484   0.63627   0.88767   0.00000  Uiso   1.00
N133   N     0.18411   0.13156   0.97466   0.00000  Uiso   1.00
N134   N     0.19255   0.62232   0.73560   0.00000  Uiso   1.00
N135   N     0.78558   0.77133   0.86713   0.00000  Uiso   1.00
N136   N     0.19920   0.91819   0.00927   0.00000  Uiso   1.00
N137   N     0.20764   0.40895   0.77021   0.00000  Uiso   1.00
N138   N     0.80067   0.55796   0.90174   0.00000  Uiso   1.00
C139   C     0.44726   0.63944   0.35611   0.00000  Uiso   1.00
C140   C     0.40738   0.61690   0.39724   0.00000  Uiso   1.00
C141   C     0.38224   0.47909   0.41255   0.00000  Uiso   1.00
C142   C     0.34708   0.48239   0.45079   0.00000  Uiso   1.00
C143   C     0.28658   0.42666   0.51129   0.00000  Uiso   1.00
C144   C     0.40504   0.75724   0.33135   0.00000  Uiso   1.00
C145   C     0.37795   0.73743   0.29126   0.00000  Uiso   1.00
C146   C     0.34082   0.85889   0.27404   0.00000  Uiso   1.00
C147   C     0.27675   0.02108   0.23223   0.00000  Uiso   1.00
C148   C     0.51720   0.71615   0.36761   0.00000  Uiso   1.00
C149   C     0.58441   0.66183   0.35799   0.00000  Uiso   1.00
C150   C     0.64172   0.74872   0.37128   0.00000  Uiso   1.00
C151   C     0.75179   0.84712   0.38577   0.00000  Uiso   1.00
C152   C     0.42952   0.89037   0.39680   0.00000  Uiso   1.00
C153   C     0.39774   0.75319   0.41934   0.00000  Uiso   1.00
C154   C     0.36261   0.75671   0.45757   0.00000  Uiso   1.00
C155   C     0.33742   0.61893   0.47293   0.00000  Uiso   1.00
C156   C     0.39540   0.89353   0.35346   0.00000  Uiso   1.00
C157   C     0.35831   0.01505   0.33629   0.00000  Uiso   1.00
C158   C     0.33117   0.99543   0.29618   0.00000  Uiso   1.00
C159   C     0.50756   0.85245   0.38972   0.00000  Uiso   1.00
C160   C     0.56478   0.93944   0.40302   0.00000  Uiso   1.00
C161   C     0.63206   0.88526   0.39343   0.00000  Uiso   1.00
H162   H     0.45476   0.53334   0.33889   0.00000  Uiso   1.00
H163   H     0.38970   0.37364   0.39543   0.00000  Uiso   1.00
H164   H     0.38542   0.63195   0.27416   0.00000  Uiso   1.00
H165   H     0.59185   0.55635   0.34089   0.00000  Uiso   1.00
H166   H     0.31330   0.25669   0.46785   0.00000  Uiso   1.00
H167   H     0.30429   0.80138   0.21214   0.00000  Uiso   1.00
H168   H     0.73959   0.64197   0.35284   0.00000  Uiso   1.00
H169   H     0.42201   0.99649   0.41401   0.00000  Uiso   1.00
H170   H     0.35516   0.86220   0.47467   0.00000  Uiso   1.00
H171   H     0.35087   0.12051   0.35340   0.00000  Uiso   1.00
H172   H     0.55730   0.04491   0.42013   0.00000  Uiso   1.00
H173   H     0.28526   0.65323   0.53216   0.00000  Uiso   1.00
H174   H     0.27625   0.19791   0.27646   0.00000  Uiso   1.00
H175   H     0.71154   0.03850   0.41716   0.00000  Uiso   1.00
O176   O     0.25587   0.35827   0.53855   0.00000  Uiso   1.00
O177   O     0.24406   0.07288   0.20307   0.00000  Uiso   1.00
O178   O     0.81516   0.86373   0.38767   0.00000  Uiso   1.00
N179   N     0.31589   0.36844   0.47466   0.00000  Uiso   1.00
N180   N     0.30745   0.87768   0.23560   0.00000  Uiso   1.00
N181   N     0.71442   0.72867   0.36713   0.00000  Uiso   1.00
N182   N     0.30080   0.58181   0.50927   0.00000  Uiso   1.00
N183   N     0.29236   0.09105   0.27021   0.00000  Uiso   1.00
N184   N     0.69933   0.94204   0.40174   0.00000  Uiso   1.00
C185   C     0.05274   0.13944   0.35611   0.00000  Uiso   1.00
C186   C     0.09262   0.11690   0.39724   0.00000  Uiso   1.00
C187   C     0.11776   0.97909   0.41255   0.00000  Uiso   1.00
C188   C     0.15292   0.98239   0.45079   0.00000  Uiso   1.00
C189   C     0.21342   0.92666   0.51129   0.00000  Uiso   1.00
C190   C     0.09496   0.25724   0.33135   0.00000  Uiso   1.00
C191   C     0.12205   0.23743   0.29126   0.00000  Uiso   1.00
C192   C     0.15918   0.35889   0.27404   0.00000  Uiso   1.00
C193   C     0.22325   0.52108   0.23223   0.00000  Uiso   1.00
C194   C     0.98280   0.21615   0.36761   0.00000  Uiso   1.00
C195   C     0.91559   0.16183   0.35799   0.00000  Uiso   1.00
C196   C     0.85828   0.24872   0.37128   0.00000  Uiso   1.00
C197   C     0.74821   0.34712   0.38577   0.00000  Uiso   1.00
C198   C     0.07048   0.39037   0.39680   0.00000  Uiso   1.00
C199   C     0.10226   0.25319   0.41934   0.00000  Uiso   1.00
C200   C     0.13739   0.25671   0.45757   0.00000  Uiso   1.00
C201   C     0.16258   0.11893   0.47293   0.00000  Uiso   1.00
C202   C     0.10460   0.39353   0.35346   0.00000  Uiso   1.00
C203   C     0.14169   0.51505   0.33629   0.00000  Uiso   1.00
C204   C     0.16883   0.49543   0.29618   0.00000  Uiso   1.00
C205   C     0.99244   0.35245   0.38972   0.00000  Uiso   1.00
C206   C     0.93522   0.43944   0.40302   0.00000  Uiso   1.00
C207   C     0.86794   0.38526   0.39343   0.00000  Uiso   1.00
H208   H     0.04524   0.03334   0.33889   0.00000  Uiso   1.00
H209   H     0.11030   0.87364   0.39543   0.00000  Uiso   1.00
H210   H     0.11458   0.13195   0.27416   0.00000  Uiso   1.00
H211   H     0.90815   0.05635   0.34089   0.00000  Uiso   1.00
H212   H     0.18670   0.75669   0.46785   0.00000  Uiso   1.00
H213   H     0.19571   0.30138   0.21214   0.00000  Uiso   1.00
H214   H     0.76041   0.14197   0.35284   0.00000  Uiso   1.00
H215   H     0.07799   0.49649   0.41401   0.00000  Uiso   1.00
H216   H     0.14484   0.36220   0.47467   0.00000  Uiso   1.00
H217   H     0.14913   0.62051   0.35340   0.00000  Uiso   1.00
H218   H     0.94270   0.54491   0.42013   0.00000  Uiso   1.00
H219   H     0.21474   0.15323   0.53216   0.00000  Uiso   1.00
H220   H     0.22375   0.69791   0.27646   0.00000  Uiso   1.00
H221   H     0.78846   0.53850   0.41716   0.00000  Uiso   1.00
O222   O     0.24413   0.85827   0.53855   0.00000  Uiso   1.00
O223   O     0.25594   0.57288   0.20307   0.00000  Uiso   1.00
O224   O     0.68484   0.36373   0.38767   0.00000  Uiso   1.00
N225   N     0.18411   0.86844   0.47466   0.00000  Uiso   1.00
N226   N     0.19255   0.37768   0.23560   0.00000  Uiso   1.00
N227   N     0.78558   0.22867   0.36713   0.00000  Uiso   1.00
N228   N     0.19920   0.08181   0.50927   0.00000  Uiso   1.00
N229   N     0.20764   0.59105   0.27021   0.00000  Uiso   1.00
N230   N     0.80067   0.44204   0.40174   0.00000  Uiso   1.00
C231   C     0.44726   0.36056   0.85611   0.00000  Uiso   1.00
C232   C     0.40738   0.38310   0.89724   0.00000  Uiso   1.00
C233   C     0.38224   0.52091   0.91255   0.00000  Uiso   1.00
C234   C     0.34708   0.51761   0.95079   0.00000  Uiso   1.00
C235   C     0.28658   0.57334   0.01129   0.00000  Uiso   1.00
C236   C     0.40504   0.24276   0.83135   0.00000  Uiso   1.00
C237   C     0.37795   0.26257   0.79126   0.00000  Uiso   1.00
C238   C     0.34082   0.14111   0.77404   0.00000  Uiso   1.00
C239   C     0.27675   0.97892   0.73223   0.00000  Uiso   1.00
C240   C     0.51720   0.28385   0.86761   0.00000  Uiso   1.00
C241   C     0.58441   0.33817   0.85799   0.00000  Uiso   1.00
C242   C     0.64172   0.25128   0.87128   0.00000  Uiso   1.00
C243   C     0.75179   0.15288   0.88577   0.00000  Uiso   1.00
C244   C     0.42952   0.10963   0.89680   0.00000  Uiso   1.00
C245   C     0.39774   0.24681   0.91934   0.00000  Uiso   1.00
C246   C     0.36261   0.24329   0.95757   0.00000  Uiso   1.00
C247   C     0.33742   0.38107   0.97293   0.00000  Uiso   1.00
C248   C     0.39540   0.10647   0.85346   0.00000  Uiso   1.00
C249   C     0.35831   0.98495   0.83629   0.00000  Uiso   1.00
C250   C     0.33117   0.00457   0.79618   0.00000  Uiso   1.00
C251   C     0.50756   0.14755   0.88972   0.00000  Uiso   1.00
C252   C     0.56478   0.06056   0.90302   0.00000  Uiso   1.00
C253   C     0.63206   0.11474   0.89343   0.00000  Uiso   1.00
H254   H     0.45476   0.46666   0.83889   0.00000  Uiso   1.00
H255   H     0.38970   0.62636   0.89543   0.00000  Uiso   1.00
H256   H     0.38542   0.36805   0.77416   0.00000  Uiso   1.00
H257   H     0.59185   0.44365   0.84089   0.00000  Uiso   1.00
H258   H     0.31330   0.74331   0.96785   0.00000  Uiso   1.00
H259   H     0.30429   0.19862   0.71214   0.00000  Uiso   1.00
H260   H     0.73959   0.35803   0.85284   0.00000  Uiso   1.00
H261   H     0.42201   0.00351   0.91401   0.00000  Uiso   1.00
H262   H     0.35516   0.13780   0.97467   0.00000  Uiso   1.00
H263   H     0.35087   0.87949   0.85340   0.00000  Uiso   1.00
H264   H     0.55730   0.95509   0.92013   0.00000  Uiso   1.00
H265   H     0.28526   0.34677   0.03216   0.00000  Uiso   1.00
H266   H     0.27625   0.80209   0.77646   0.00000  Uiso   1.00
H267   H     0.71154   0.96150   0.91716   0.00000  Uiso   1.00
O268   O     0.25587   0.64173   0.03855   0.00000  Uiso   1.00
O269   O     0.24406   0.92712   0.70307   0.00000  Uiso   1.00
O270   O     0.81516   0.13627   0.88767   0.00000  Uiso   1.00
N271   N     0.31589   0.63156   0.97466   0.00000  Uiso   1.00
N272   N     0.30745   0.12232   0.73560   0.00000  Uiso   1.00
N273   N     0.71442   0.27133   0.86713   0.00000  Uiso   1.00
N274   N     0.30080   0.41819   0.00927   0.00000  Uiso   1.00
N275   N     0.29236   0.90895   0.77021   0.00000  Uiso   1.00
N276   N     0.69933   0.05796   0.90174   0.00000  Uiso   1.00
C277   C     0.94726   0.13944   0.14389   0.00000  Uiso   1.00
C278   C     0.90738   0.11690   0.10276   0.00000  Uiso   1.00
C279   C     0.88224   0.97909   0.08745   0.00000  Uiso   1.00
C280   C     0.84708   0.98239   0.04921   0.00000  Uiso   1.00
C281   C     0.78658   0.92666   0.98871   0.00000  Uiso   1.00
C282   C     0.90504   0.25724   0.16865   0.00000  Uiso   1.00
C283   C     0.87795   0.23743   0.20874   0.00000  Uiso   1.00
C284   C     0.84082   0.35889   0.22596   0.00000  Uiso   1.00
C285   C     0.77675   0.52108   0.26777   0.00000  Uiso   1.00
C286   C     0.01720   0.21615   0.13239   0.00000  Uiso   1.00
C287   C     0.08441   0.16183   0.14201   0.00000  Uiso   1.00
C288   C     0.14172   0.24872   0.12872   0.00000  Uiso   1.00
C289   C     0.25179   0.34712   0.11423   0.00000  Uiso   1.00
C290   C     0.92952   0.39037   0.10320   0.00000  Uiso   1.00
C291   C     0.89774   0.25319   0.08066   0.00000  Uiso   1.00
C292   C     0.86261   0.25671   0.04243   0.00000  Uiso   1.00
C293   C     0.83742   0.11893   0.02707   0.00000  Uiso   1.00
C294   C     0.89540   0.39353   0.14654   0.00000  Uiso   1.00
C295   C     0.85831   0.51505   0.16371   0.00000  Uiso   1.00
C296   C     0.83117   0.49543   0.20382   0.00000  Uiso   1.00
C297   C     0.00756   0.35245   0.11028   0.00000  Uiso   1.00
C298   C     0.06478   0.43944   0.09698   0.00000  Uiso   1.00
C299   C     0.13206   0.38526   0.10657   0.00000  Uiso   1.00
H300   H     0.95476   0.03334   0.16111   0.00000  Uiso   1.00
H301   H     0.88970   0.87364   0.10457   0.00000  Uiso   1.00
H302   H     0.88542   0.13195   0.22584   0.00000  Uiso   1.00
H303   H     0.09185   0.05635   0.15911   0.00000  Uiso   1.00
H304   H     0.81330   0.75669   0.03215   0.00000  Uiso   1.00
H305   H     0.80429   0.30138   0.28786   0.00000  Uiso   1.00
H306   H     0.23959   0.14197   0.14716   0.00000  Uiso   1.00
H307   H     0.92201   0.49649   0.08599   0.00000  Uiso   1.00
H308   H     0.85516   0.36220   0.02533   0.00000  Uiso   1.00
H309   H     0.85087   0.62051   0.14660   0.00000  Uiso   1.00
H310   H     0.05730   0.54491   0.07987   0.00000  Uiso   1.00
H311   H     0.78526   0.15323   0.96784   0.00000  Uiso   1.00
H312   H     0.77625   0.69791   0.22354   0.00000  Uiso   1.00
H313   H     0.21154   0.53850   0.08284   0.00000  Uiso   1.00
O314   O     0.75587   0.85827   0.96145   0.00000  Uiso   1.00
O315   O     0.74406   0.57288   0.29693   0.00000  Uiso   1.00
O316   O     0.31516   0.36373   0.11233   0.00000  Uiso   1.00
N317   N     0.81589   0.86844   0.02534   0.00000  Uiso   1.00
N318   N     0.80745   0.37768   0.26440   0.00000  Uiso   1.00
N319   N     0.21442   0.22867   0.13287   0.00000  Uiso   1.00
N320   N     0.80080   0.08181   0.99073   0.00000  Uiso   1.00
N321   N     0.79236   0.59105   0.22979   0.00000  Uiso   1.00
N322   N     0.19933   0.44204   0.09826   0.00000  Uiso   1.00
C323   C     0.55274   0.36056   0.64389   0.00000  Uiso   1.00
C324   C     0.59262   0.38310   0.60276   0.00000  Uiso   1.00
C325   C     0.61776   0.52091   0.58745   0.00000  Uiso   1.00
C326   C     0.65292   0.51761   0.54921   0.00000  Uiso   1.00
C327   C     0.71342   0.57334   0.48871   0.00000  Uiso   1.00
C328   C     0.59496   0.24276   0.66865   0.00000  Uiso   1.00
C329   C     0.62205   0.26257   0.70874   0.00000  Uiso   1.00
C330   C     0.65918   0.14111   0.72596   0.00000  Uiso   1.00
C331   C     0.72325   0.97892   0.76777   0.00000  Uiso   1.00
C332   C     0.48280   0.28385   0.63239   0.00000  Uiso   1.00
C333   C     0.41559   0.33817   0.64201   0.00000  Uiso   1.00
C334   C     0.35828   0.25128   0.62872   0.00000  Uiso   1.00
C335   C     0.24821   0.15288   0.61423   0.00000  Uiso   1.00
C336   C     0.57048   0.10963   0.60320   0.00000  Uiso   1.00
C337   C     0.60226   0.24681   0.58066   0.00000  Uiso   1.00
C338   C     0.63739   0.24329   0.54243   0.00000  Uiso   1.00
C339   C     0.66258   0.38107   0.52707   0.00000  Uiso   1.00
C340   C     0.60460   0.10647   0.64654   0.00000  Uiso   1.00
C341   C     0.64169   0.98495   0.66371   0.00000  Uiso   1.00
C342   C     0.66883   0.00457   0.70382   0.00000  Uiso   1.00
C343   C     0.49244   0.14755   0.61028   0.00000  Uiso   1.00
C344   C     0.43522   0.06056   0.59698   0.00000  Uiso   1.00
C345   C     0.36794   0.11474   0.60657   0.00000  Uiso   1.00
H346   H     0.54524   0.46666   0.66111   0.00000  Uiso   1.00
H347   H     0.61030   0.62636   0.60457   0.00000  Uiso   1.00
H348   H     0.61458   0.36805   0.72584   0.00000  Uiso   1.00
H349   H     0.40815   0.44365   0.65911   0.00000  Uiso   1.00
H350   H     0.68670   0.74331   0.53215   0.00000  Uiso   1.00
H351   H     0.69571   0.19862   0.78786   0.00000  Uiso   1.00
H352   H     0.26041   0.35803   0.64716   0.00000  Uiso   1.00
H353   H     0.57799   0.00351   0.58599   0.00000  Uiso   1.00
H354   H     0.64484   0.13780   0.52533   0.00000  Uiso   1.00
H355   H     0.64913   0.87949   0.64660   0.00000  Uiso   1.00
H356   H     0.44270   0.95509   0.57987   0.00000  Uiso   1.00
H357   H     0.71474   0.34677   0.46784   0.00000  Uiso   1.00
H358   H     0.72375   0.80209   0.72354   0.00000  Uiso   1.00
H359   H     0.28846   0.96150   0.58284   0.00000  Uiso   1.00
O360   O     0.74413   0.64173   0.46145   0.00000  Uiso   1.00
O361   O     0.75594   0.92712   0.79693   0.00000  Uiso   1.00
O362   O     0.18484   0.13627   0.61233   0.00000  Uiso   1.00
N363   N     0.68411   0.63156   0.52534   0.00000  Uiso   1.00
N364   N     0.69255   0.12232   0.76440   0.00000  Uiso   1.00
N365   N     0.28558   0.27133   0.63287   0.00000  Uiso   1.00
N366   N     0.69920   0.41819   0.49073   0.00000  Uiso   1.00
N367   N     0.70764   0.90895   0.72979   0.00000  Uiso   1.00
N368   N     0.30067   0.05796   0.59826   0.00000  Uiso   1.00
