data_job_04108
_audit_creation_date              2018-12-19
_audit_creation_method            'Materials Studio'
_symmetry_space_group_name_H-M    'P1'
_symmetry_Int_Tables_number       1
_symmetry_cell_setting            triclinic
loop_
_symmetry_equiv_pos_as_xyz
  x,y,z
_cell_length_a                    21.9618
_cell_length_b                    7.7718
_cell_length_c                    19.4765
_cell_angle_alpha                 90.0000
_cell_angle_beta                  86.4529
_cell_angle_gamma                 90.0000
loop_
_atom_site_label
_atom_site_type_symbol
_atom_site_fract_x
_atom_site_fract_y
_atom_site_fract_z
_atom_site_U_iso_or_equiv
_atom_site_adp_type
_atom_site_occupancy
C1     C     0.26838   0.32092   0.82809   0.00000  Uiso   1.00
C2     C     0.30803   0.17511   0.85277   0.00000  Uiso   1.00
C3     C     0.35793   0.19381   0.89250   0.00000  Uiso   1.00
C4     C     0.38822   0.04457   0.90970   0.00000  Uiso   1.00
C5     C     0.45270   0.84281   0.95131   0.00000  Uiso   1.00
C6     C     0.26995   0.30503   0.74996   0.00000  Uiso   1.00
C7     C     0.28783   0.43298   0.70326   0.00000  Uiso   1.00
C8     C     0.28605   0.39311   0.63392   0.00000  Uiso   1.00
C9     C     0.29137   0.39312   0.51591   0.00000  Uiso   1.00
C10    C     0.20320   0.27820   0.85406   0.00000  Uiso   1.00
C11    C     0.16495   0.38361   0.89486   0.00000  Uiso   1.00
C12    C     0.10696   0.32116   0.91315   0.00000  Uiso   1.00
C13    C     0.00864   0.27950   0.95677   0.00000  Uiso   1.00
C14    C     0.23343   0.02262   0.78799   0.00000  Uiso   1.00
C15    C     0.28905   0.01309   0.83098   0.00000  Uiso   1.00
C16    C     0.31927   0.86377   0.84814   0.00000  Uiso   1.00
C17    C     0.36921   0.88225   0.88789   0.00000  Uiso   1.00
C18    C     0.25097   0.14302   0.72818   0.00000  Uiso   1.00
C19    C     0.24916   0.10295   0.65890   0.00000  Uiso   1.00
C20    C     0.26704   0.23080   0.61210   0.00000  Uiso   1.00
C21    C     0.18422   0.11617   0.83228   0.00000  Uiso   1.00
C22    C     0.12628   0.05357   0.85050   0.00000  Uiso   1.00
C23    C     0.08795   0.15885   0.89133   0.00000  Uiso   1.00
H24    H     0.28316   0.44706   0.84504   0.00000  Uiso   1.00
H25    H     0.37261   0.31922   0.90934   0.00000  Uiso   1.00
H26    H     0.30251   0.55836   0.72013   0.00000  Uiso   1.00
H27    H     0.17965   0.50898   0.91171   0.00000  Uiso   1.00
H28    H     0.46344   0.10603   0.97100   0.00000  Uiso   1.00
H29    H     0.31560   0.61029   0.57204   0.00000  Uiso   1.00
H30    H     0.05652   0.50617   0.97602   0.00000  Uiso   1.00
H31    H     0.21865   0.89648   0.77103   0.00000  Uiso   1.00
H32    H     0.30457   0.73841   0.83128   0.00000  Uiso   1.00
H33    H     0.23447   0.97756   0.64206   0.00000  Uiso   1.00
H34    H     0.11161   0.92818   0.83364   0.00000  Uiso   1.00
H35    H     0.40821   0.63463   0.90764   0.00000  Uiso   1.00
H36    H     0.26037   0.13890   0.50867   0.00000  Uiso   1.00
H37    H     0.00130   0.03477   0.91265   0.00000  Uiso   1.00
O38    O     0.49352   0.77629   0.98026   0.00000  Uiso   1.00
O39    O     0.29955   0.43788   0.45684   0.00000  Uiso   1.00
O40    O     0.95966   0.30127   0.98685   0.00000  Uiso   1.00
N41    N     0.43864   0.01678   0.94783   0.00000  Uiso   1.00
N42    N     0.30043   0.48822   0.57482   0.00000  Uiso   1.00
N43    N     0.05821   0.39090   0.95250   0.00000  Uiso   1.00
N44    N     0.40892   0.76312   0.91374   0.00000  Uiso   1.00
N45    N     0.27072   0.23456   0.54073   0.00000  Uiso   1.00
N46    N     0.02850   0.13724   0.91840   0.00000  Uiso   1.00
C47    C     0.73162   0.32092   0.67191   0.00000  Uiso   1.00
C48    C     0.69197   0.17511   0.64723   0.00000  Uiso   1.00
C49    C     0.64207   0.19381   0.60750   0.00000  Uiso   1.00
C50    C     0.61178   0.04457   0.59030   0.00000  Uiso   1.00
C51    C     0.54730   0.84281   0.54869   0.00000  Uiso   1.00
C52    C     0.73005   0.30503   0.75004   0.00000  Uiso   1.00
C53    C     0.71217   0.43298   0.79674   0.00000  Uiso   1.00
C54    C     0.71395   0.39311   0.86608   0.00000  Uiso   1.00
C55    C     0.70863   0.39312   0.98409   0.00000  Uiso   1.00
C56    C     0.79680   0.27820   0.64594   0.00000  Uiso   1.00
C57    C     0.83505   0.38361   0.60514   0.00000  Uiso   1.00
C58    C     0.89304   0.32116   0.58685   0.00000  Uiso   1.00
C59    C     0.99136   0.27950   0.54323   0.00000  Uiso   1.00
C60    C     0.76657   0.02262   0.71201   0.00000  Uiso   1.00
C61    C     0.71095   0.01309   0.66902   0.00000  Uiso   1.00
C62    C     0.68073   0.86377   0.65186   0.00000  Uiso   1.00
C63    C     0.63079   0.88225   0.61211   0.00000  Uiso   1.00
C64    C     0.74903   0.14302   0.77182   0.00000  Uiso   1.00
C65    C     0.75084   0.10295   0.84110   0.00000  Uiso   1.00
C66    C     0.73296   0.23080   0.88790   0.00000  Uiso   1.00
C67    C     0.81578   0.11617   0.66772   0.00000  Uiso   1.00
C68    C     0.87372   0.05357   0.64950   0.00000  Uiso   1.00
C69    C     0.91205   0.15885   0.60867   0.00000  Uiso   1.00
H70    H     0.71684   0.44706   0.65496   0.00000  Uiso   1.00
H71    H     0.62739   0.31922   0.59066   0.00000  Uiso   1.00
H72    H     0.69749   0.55836   0.77987   0.00000  Uiso   1.00
H73    H     0.82035   0.50898   0.58829   0.00000  Uiso   1.00
H74    H     0.53656   0.10603   0.52900   0.00000  Uiso   1.00
H75    H     0.68440   0.61029   0.92796   0.00000  Uiso   1.00
H76    H     0.94348   0.50617   0.52398   0.00000  Uiso   1.00
H77    H     0.78135   0.89648   0.72897   0.00000  Uiso   1.00
H78    H     0.69543   0.73841   0.66872   0.00000  Uiso   1.00
H79    H     0.76553   0.97756   0.85794   0.00000  Uiso   1.00
H80    H     0.88839   0.92818   0.66636   0.00000  Uiso   1.00
H81    H     0.59179   0.63463   0.59236   0.00000  Uiso   1.00
H82    H     0.73963   0.13890   0.99133   0.00000  Uiso   1.00
H83    H     0.99870   0.03477   0.58735   0.00000  Uiso   1.00
O84    O     0.50648   0.77629   0.51974   0.00000  Uiso   1.00
O85    O     0.70045   0.43788   0.04316   0.00000  Uiso   1.00
O86    O     0.04034   0.30127   0.51315   0.00000  Uiso   1.00
N87    N     0.56136   0.01678   0.55217   0.00000  Uiso   1.00
N88    N     0.69957   0.48822   0.92518   0.00000  Uiso   1.00
N89    N     0.94179   0.39090   0.54750   0.00000  Uiso   1.00
N90    N     0.59108   0.76312   0.58626   0.00000  Uiso   1.00
N91    N     0.72928   0.23456   0.95927   0.00000  Uiso   1.00
N92    N     0.97150   0.13724   0.58160   0.00000  Uiso   1.00
C93    C     0.73162   0.67908   0.17191   0.00000  Uiso   1.00
C94    C     0.69197   0.82489   0.14723   0.00000  Uiso   1.00
C95    C     0.64207   0.80619   0.10750   0.00000  Uiso   1.00
C96    C     0.61178   0.95543   0.09030   0.00000  Uiso   1.00
C97    C     0.54730   0.15719   0.04869   0.00000  Uiso   1.00
C98    C     0.73005   0.69497   0.25004   0.00000  Uiso   1.00
C99    C     0.71217   0.56702   0.29674   0.00000  Uiso   1.00
C100   C     0.71395   0.60689   0.36608   0.00000  Uiso   1.00
C101   C     0.70863   0.60688   0.48409   0.00000  Uiso   1.00
C102   C     0.79680   0.72180   0.14594   0.00000  Uiso   1.00
C103   C     0.83505   0.61639   0.10514   0.00000  Uiso   1.00
C104   C     0.89304   0.67884   0.08685   0.00000  Uiso   1.00
C105   C     0.99136   0.72050   0.04323   0.00000  Uiso   1.00
C106   C     0.76657   0.97738   0.21201   0.00000  Uiso   1.00
C107   C     0.71095   0.98691   0.16902   0.00000  Uiso   1.00
C108   C     0.68073   0.13623   0.15186   0.00000  Uiso   1.00
C109   C     0.63079   0.11775   0.11211   0.00000  Uiso   1.00
C110   C     0.74903   0.85698   0.27182   0.00000  Uiso   1.00
C111   C     0.75084   0.89705   0.34110   0.00000  Uiso   1.00
C112   C     0.73296   0.76920   0.38790   0.00000  Uiso   1.00
C113   C     0.81578   0.88383   0.16772   0.00000  Uiso   1.00
C114   C     0.87372   0.94643   0.14950   0.00000  Uiso   1.00
C115   C     0.91205   0.84115   0.10867   0.00000  Uiso   1.00
H116   H     0.71684   0.55294   0.15496   0.00000  Uiso   1.00
H117   H     0.62739   0.68078   0.09066   0.00000  Uiso   1.00
H118   H     0.69749   0.44164   0.27987   0.00000  Uiso   1.00
H119   H     0.82035   0.49102   0.08829   0.00000  Uiso   1.00
H120   H     0.53656   0.89397   0.02900   0.00000  Uiso   1.00
H121   H     0.68440   0.38971   0.42796   0.00000  Uiso   1.00
H122   H     0.94348   0.49383   0.02398   0.00000  Uiso   1.00
H123   H     0.78135   0.10352   0.22897   0.00000  Uiso   1.00
H124   H     0.69543   0.26159   0.16872   0.00000  Uiso   1.00
H125   H     0.76553   0.02244   0.35794   0.00000  Uiso   1.00
H126   H     0.88839   0.07182   0.16636   0.00000  Uiso   1.00
H127   H     0.59179   0.36537   0.09236   0.00000  Uiso   1.00
H128   H     0.73963   0.86110   0.49133   0.00000  Uiso   1.00
H129   H     0.99870   0.96523   0.08735   0.00000  Uiso   1.00
O130   O     0.50648   0.22371   0.01974   0.00000  Uiso   1.00
O131   O     0.70045   0.56212   0.54316   0.00000  Uiso   1.00
O132   O     0.04034   0.69873   0.01315   0.00000  Uiso   1.00
N133   N     0.56136   0.98322   0.05217   0.00000  Uiso   1.00
N134   N     0.69957   0.51178   0.42518   0.00000  Uiso   1.00
N135   N     0.94179   0.60910   0.04750   0.00000  Uiso   1.00
N136   N     0.59108   0.23688   0.08626   0.00000  Uiso   1.00
N137   N     0.72928   0.76544   0.45927   0.00000  Uiso   1.00
N138   N     0.97150   0.86276   0.08160   0.00000  Uiso   1.00
C139   C     0.26838   0.67908   0.32809   0.00000  Uiso   1.00
C140   C     0.30803   0.82489   0.35277   0.00000  Uiso   1.00
C141   C     0.35793   0.80619   0.39250   0.00000  Uiso   1.00
C142   C     0.38822   0.95543   0.40970   0.00000  Uiso   1.00
C143   C     0.45270   0.15719   0.45131   0.00000  Uiso   1.00
C144   C     0.26995   0.69497   0.24996   0.00000  Uiso   1.00
C145   C     0.28783   0.56702   0.20326   0.00000  Uiso   1.00
C146   C     0.28605   0.60689   0.13392   0.00000  Uiso   1.00
C147   C     0.29137   0.60688   0.01591   0.00000  Uiso   1.00
C148   C     0.20320   0.72180   0.35406   0.00000  Uiso   1.00
C149   C     0.16495   0.61639   0.39486   0.00000  Uiso   1.00
C150   C     0.10696   0.67884   0.41315   0.00000  Uiso   1.00
C151   C     0.00864   0.72050   0.45677   0.00000  Uiso   1.00
C152   C     0.23343   0.97738   0.28799   0.00000  Uiso   1.00
C153   C     0.28905   0.98691   0.33098   0.00000  Uiso   1.00
C154   C     0.31927   0.13623   0.34814   0.00000  Uiso   1.00
C155   C     0.36921   0.11775   0.38789   0.00000  Uiso   1.00
C156   C     0.25097   0.85698   0.22818   0.00000  Uiso   1.00
C157   C     0.24916   0.89705   0.15890   0.00000  Uiso   1.00
C158   C     0.26704   0.76920   0.11210   0.00000  Uiso   1.00
C159   C     0.18422   0.88383   0.33228   0.00000  Uiso   1.00
C160   C     0.12628   0.94643   0.35050   0.00000  Uiso   1.00
C161   C     0.08795   0.84115   0.39133   0.00000  Uiso   1.00
H162   H     0.28316   0.55294   0.34504   0.00000  Uiso   1.00
H163   H     0.37261   0.68078   0.40934   0.00000  Uiso   1.00
H164   H     0.30251   0.44164   0.22013   0.00000  Uiso   1.00
H165   H     0.17965   0.49102   0.41171   0.00000  Uiso   1.00
H166   H     0.46344   0.89397   0.47100   0.00000  Uiso   1.00
H167   H     0.31560   0.38971   0.07204   0.00000  Uiso   1.00
H168   H     0.05652   0.49383   0.47602   0.00000  Uiso   1.00
H169   H     0.21865   0.10352   0.27103   0.00000  Uiso   1.00
H170   H     0.30457   0.26159   0.33128   0.00000  Uiso   1.00
H171   H     0.23447   0.02244   0.14206   0.00000  Uiso   1.00
H172   H     0.11161   0.07182   0.33364   0.00000  Uiso   1.00
H173   H     0.40821   0.36537   0.40764   0.00000  Uiso   1.00
H174   H     0.26037   0.86110   0.00867   0.00000  Uiso   1.00
H175   H     0.00130   0.96523   0.41265   0.00000  Uiso   1.00
O176   O     0.49352   0.22371   0.48026   0.00000  Uiso   1.00
O177   O     0.29955   0.56212   0.95684   0.00000  Uiso   1.00
O178   O     0.95966   0.69873   0.48685   0.00000  Uiso   1.00
N179   N     0.43864   0.98322   0.44783   0.00000  Uiso   1.00
N180   N     0.30043   0.51178   0.07482   0.00000  Uiso   1.00
N181   N     0.05821   0.60910   0.45250   0.00000  Uiso   1.00
N182   N     0.40892   0.23688   0.41374   0.00000  Uiso   1.00
N183   N     0.27072   0.76544   0.04073   0.00000  Uiso   1.00
N184   N     0.02850   0.86276   0.41840   0.00000  Uiso   1.00
