data_job_03772
_audit_creation_date              2018-12-19
_audit_creation_method            'Materials Studio'
_symmetry_space_group_name_H-M    'P1'
_symmetry_Int_Tables_number       1
_symmetry_cell_setting            triclinic
loop_
_symmetry_equiv_pos_as_xyz
  x,y,z
_cell_length_a                    12.4694
_cell_length_b                    13.3321
_cell_length_c                    23.4124
_cell_angle_alpha                 90.0000
_cell_angle_beta                  127.3289
_cell_angle_gamma                 90.0000
loop_
_atom_site_label
_atom_site_type_symbol
_atom_site_fract_x
_atom_site_fract_y
_atom_site_fract_z
_atom_site_U_iso_or_equiv
_atom_site_adp_type
_atom_site_occupancy
C1     C     0.44781   0.26750   0.36806   0.00000  Uiso   1.00
C2     C     0.37996   0.16950   0.32876   0.00000  Uiso   1.00
C3     C     0.30383   0.15451   0.25517   0.00000  Uiso   1.00
C4     C     0.25026   0.05938   0.22968   0.00000  Uiso   1.00
C5     C     0.14152   0.91898   0.16158   0.00000  Uiso   1.00
C6     C     0.39413   0.29245   0.41008   0.00000  Uiso   1.00
C7     C     0.32993   0.38084   0.40488   0.00000  Uiso   1.00
C8     C     0.28831   0.38921   0.44786   0.00000  Uiso   1.00
C9     C     0.20167   0.43972   0.50606   0.00000  Uiso   1.00
C10    C     0.59691   0.24303   0.42399   0.00000  Uiso   1.00
C11    C     0.70323   0.28989   0.43050   0.00000  Uiso   1.00
C12    C     0.83234   0.25667   0.48520   0.00000  Uiso   1.00
C13    C     0.06054   0.23046   0.56500   0.00000  Uiso   1.00
C14    C     0.48806   0.12519   0.45365   0.00000  Uiso   1.00
C15    C     0.40182   0.09221   0.37525   0.00000  Uiso   1.00
C16    C     0.34836   0.99706   0.34987   0.00000  Uiso   1.00
C17    C     0.27217   0.98194   0.27625   0.00000  Uiso   1.00
C18    C     0.41599   0.21516   0.45657   0.00000  Uiso   1.00
C19    C     0.37446   0.22339   0.49958   0.00000  Uiso   1.00
C20    C     0.31021   0.31177   0.49444   0.00000  Uiso   1.00
C21    C     0.61878   0.16573   0.47048   0.00000  Uiso   1.00
C22    C     0.74775   0.13244   0.52519   0.00000  Uiso   1.00
C23    C     0.85424   0.17923   0.53178   0.00000  Uiso   1.00
H24    H     0.43079   0.32768   0.33187   0.00000  Uiso   1.00
H25    H     0.28692   0.21436   0.21921   0.00000  Uiso   1.00
H26    H     0.31304   0.44065   0.36890   0.00000  Uiso   1.00
H27    H     0.68627   0.34971   0.39451   0.00000  Uiso   1.00
H28    H     0.13702   0.05463   0.11480   0.00000  Uiso   1.00
H29    H     0.19213   0.53180   0.43046   0.00000  Uiso   1.00
H30    H     0.97916   0.34004   0.48447   0.00000  Uiso   1.00
H31    H     0.50508   0.06501   0.48985   0.00000  Uiso   1.00
H32    H     0.36529   0.93726   0.38586   0.00000  Uiso   1.00
H33    H     0.39141   0.16356   0.53555   0.00000  Uiso   1.00
H34    H     0.76464   0.07262   0.56116   0.00000  Uiso   1.00
H35    H     0.20062   0.82974   0.25006   0.00000  Uiso   1.00
H36    H     0.25574   0.30691   0.56572   0.00000  Uiso   1.00
H37    H     0.04277   0.11514   0.61973   0.00000  Uiso   1.00
O38    O     0.07549   0.86290   0.11117   0.00000  Uiso   1.00
O39    O     0.14782   0.48893   0.52531   0.00000  Uiso   1.00
O40    O     0.18038   0.23734   0.59616   0.00000  Uiso   1.00
N41    N     0.17120   0.01923   0.16091   0.00000  Uiso   1.00
N42    N     0.22270   0.46535   0.45602   0.00000  Uiso   1.00
N43    N     0.95851   0.28608   0.50653   0.00000  Uiso   1.00
N44    N     0.20542   0.89821   0.23369   0.00000  Uiso   1.00
N45    N     0.25693   0.34433   0.52880   0.00000  Uiso   1.00
N46    N     0.99274   0.16507   0.57931   0.00000  Uiso   1.00
C47    C     0.55219   0.76750   0.13194   0.00000  Uiso   1.00
C48    C     0.62004   0.66950   0.17124   0.00000  Uiso   1.00
C49    C     0.69617   0.65451   0.24483   0.00000  Uiso   1.00
C50    C     0.74974   0.55938   0.27032   0.00000  Uiso   1.00
C51    C     0.85848   0.41898   0.33842   0.00000  Uiso   1.00
C52    C     0.60587   0.79245   0.08992   0.00000  Uiso   1.00
C53    C     0.67007   0.88084   0.09512   0.00000  Uiso   1.00
C54    C     0.71169   0.88921   0.05214   0.00000  Uiso   1.00
C55    C     0.79833   0.93972   0.99394   0.00000  Uiso   1.00
C56    C     0.40309   0.74303   0.07601   0.00000  Uiso   1.00
C57    C     0.29677   0.78989   0.06950   0.00000  Uiso   1.00
C58    C     0.16766   0.75667   0.01480   0.00000  Uiso   1.00
C59    C     0.93946   0.73046   0.93500   0.00000  Uiso   1.00
C60    C     0.51194   0.62519   0.04635   0.00000  Uiso   1.00
C61    C     0.59818   0.59221   0.12475   0.00000  Uiso   1.00
C62    C     0.65164   0.49706   0.15013   0.00000  Uiso   1.00
C63    C     0.72783   0.48194   0.22375   0.00000  Uiso   1.00
C64    C     0.58401   0.71516   0.04343   0.00000  Uiso   1.00
C65    C     0.62554   0.72339   0.00042   0.00000  Uiso   1.00
C66    C     0.68979   0.81177   0.00556   0.00000  Uiso   1.00
C67    C     0.38122   0.66573   0.02952   0.00000  Uiso   1.00
C68    C     0.25225   0.63244   0.97481   0.00000  Uiso   1.00
C69    C     0.14576   0.67923   0.96822   0.00000  Uiso   1.00
H70    H     0.56921   0.82768   0.16813   0.00000  Uiso   1.00
H71    H     0.71308   0.71436   0.28079   0.00000  Uiso   1.00
H72    H     0.68696   0.94065   0.13110   0.00000  Uiso   1.00
H73    H     0.31373   0.84971   0.10549   0.00000  Uiso   1.00
H74    H     0.86298   0.55463   0.38520   0.00000  Uiso   1.00
H75    H     0.80787   0.03180   0.06954   0.00000  Uiso   1.00
H76    H     0.02084   0.84004   0.01553   0.00000  Uiso   1.00
H77    H     0.49492   0.56501   0.01015   0.00000  Uiso   1.00
H78    H     0.63471   0.43726   0.11414   0.00000  Uiso   1.00
H79    H     0.60859   0.66356   0.96445   0.00000  Uiso   1.00
H80    H     0.23536   0.57262   0.93884   0.00000  Uiso   1.00
H81    H     0.79938   0.32974   0.24994   0.00000  Uiso   1.00
H82    H     0.74426   0.80691   0.93428   0.00000  Uiso   1.00
H83    H     0.95723   0.61514   0.88027   0.00000  Uiso   1.00
O84    O     0.92451   0.36290   0.38883   0.00000  Uiso   1.00
O85    O     0.85218   0.98893   0.97469   0.00000  Uiso   1.00
O86    O     0.81962   0.73734   0.90384   0.00000  Uiso   1.00
N87    N     0.82880   0.51923   0.33909   0.00000  Uiso   1.00
N88    N     0.77730   0.96535   0.04398   0.00000  Uiso   1.00
N89    N     0.04149   0.78608   0.99347   0.00000  Uiso   1.00
N90    N     0.79458   0.39821   0.26631   0.00000  Uiso   1.00
N91    N     0.74307   0.84433   0.97120   0.00000  Uiso   1.00
N92    N     0.00726   0.66507   0.92069   0.00000  Uiso   1.00
C93    C     0.55219   0.73250   0.63194   0.00000  Uiso   1.00
C94    C     0.62004   0.83050   0.67124   0.00000  Uiso   1.00
C95    C     0.69617   0.84549   0.74483   0.00000  Uiso   1.00
C96    C     0.74974   0.94062   0.77032   0.00000  Uiso   1.00
C97    C     0.85848   0.08102   0.83842   0.00000  Uiso   1.00
C98    C     0.60587   0.70755   0.58992   0.00000  Uiso   1.00
C99    C     0.67007   0.61916   0.59512   0.00000  Uiso   1.00
C100   C     0.71169   0.61079   0.55214   0.00000  Uiso   1.00
C101   C     0.79833   0.56028   0.49394   0.00000  Uiso   1.00
C102   C     0.40309   0.75697   0.57601   0.00000  Uiso   1.00
C103   C     0.29677   0.71011   0.56950   0.00000  Uiso   1.00
C104   C     0.16766   0.74333   0.51480   0.00000  Uiso   1.00
C105   C     0.93946   0.76954   0.43500   0.00000  Uiso   1.00
C106   C     0.51194   0.87481   0.54635   0.00000  Uiso   1.00
C107   C     0.59818   0.90779   0.62475   0.00000  Uiso   1.00
C108   C     0.65164   0.00294   0.65013   0.00000  Uiso   1.00
C109   C     0.72783   0.01806   0.72375   0.00000  Uiso   1.00
C110   C     0.58401   0.78484   0.54343   0.00000  Uiso   1.00
C111   C     0.62554   0.77661   0.50042   0.00000  Uiso   1.00
C112   C     0.68979   0.68823   0.50556   0.00000  Uiso   1.00
C113   C     0.38122   0.83427   0.52952   0.00000  Uiso   1.00
C114   C     0.25225   0.86756   0.47481   0.00000  Uiso   1.00
C115   C     0.14576   0.82077   0.46822   0.00000  Uiso   1.00
H116   H     0.56921   0.67232   0.66813   0.00000  Uiso   1.00
H117   H     0.71308   0.78564   0.78079   0.00000  Uiso   1.00
H118   H     0.68696   0.55935   0.63110   0.00000  Uiso   1.00
H119   H     0.31373   0.65029   0.60549   0.00000  Uiso   1.00
H120   H     0.86298   0.94537   0.88520   0.00000  Uiso   1.00
H121   H     0.80787   0.46820   0.56954   0.00000  Uiso   1.00
H122   H     0.02084   0.65996   0.51553   0.00000  Uiso   1.00
H123   H     0.49492   0.93499   0.51015   0.00000  Uiso   1.00
H124   H     0.63471   0.06274   0.61414   0.00000  Uiso   1.00
H125   H     0.60859   0.83644   0.46445   0.00000  Uiso   1.00
H126   H     0.23536   0.92738   0.43884   0.00000  Uiso   1.00
H127   H     0.79938   0.17026   0.74994   0.00000  Uiso   1.00
H128   H     0.74426   0.69309   0.43428   0.00000  Uiso   1.00
H129   H     0.95723   0.88486   0.38027   0.00000  Uiso   1.00
O130   O     0.92451   0.13710   0.88883   0.00000  Uiso   1.00
O131   O     0.85218   0.51107   0.47469   0.00000  Uiso   1.00
O132   O     0.81962   0.76266   0.40384   0.00000  Uiso   1.00
N133   N     0.82880   0.98077   0.83909   0.00000  Uiso   1.00
N134   N     0.77730   0.53465   0.54398   0.00000  Uiso   1.00
N135   N     0.04149   0.71392   0.49347   0.00000  Uiso   1.00
N136   N     0.79458   0.10179   0.76631   0.00000  Uiso   1.00
N137   N     0.74307   0.65567   0.47120   0.00000  Uiso   1.00
N138   N     0.00726   0.83493   0.42069   0.00000  Uiso   1.00
C139   C     0.44781   0.23250   0.86806   0.00000  Uiso   1.00
C140   C     0.37996   0.33050   0.82876   0.00000  Uiso   1.00
C141   C     0.30383   0.34549   0.75517   0.00000  Uiso   1.00
C142   C     0.25026   0.44062   0.72968   0.00000  Uiso   1.00
C143   C     0.14152   0.58102   0.66158   0.00000  Uiso   1.00
C144   C     0.39413   0.20755   0.91008   0.00000  Uiso   1.00
C145   C     0.32993   0.11916   0.90488   0.00000  Uiso   1.00
C146   C     0.28831   0.11079   0.94786   0.00000  Uiso   1.00
C147   C     0.20167   0.06028   0.00606   0.00000  Uiso   1.00
C148   C     0.59691   0.25697   0.92399   0.00000  Uiso   1.00
C149   C     0.70323   0.21011   0.93050   0.00000  Uiso   1.00
C150   C     0.83234   0.24333   0.98520   0.00000  Uiso   1.00
C151   C     0.06054   0.26954   0.06500   0.00000  Uiso   1.00
C152   C     0.48806   0.37481   0.95365   0.00000  Uiso   1.00
C153   C     0.40182   0.40779   0.87525   0.00000  Uiso   1.00
C154   C     0.34836   0.50294   0.84987   0.00000  Uiso   1.00
C155   C     0.27217   0.51806   0.77625   0.00000  Uiso   1.00
C156   C     0.41599   0.28484   0.95657   0.00000  Uiso   1.00
C157   C     0.37446   0.27661   0.99958   0.00000  Uiso   1.00
C158   C     0.31021   0.18823   0.99444   0.00000  Uiso   1.00
C159   C     0.61878   0.33427   0.97048   0.00000  Uiso   1.00
C160   C     0.74775   0.36756   0.02519   0.00000  Uiso   1.00
C161   C     0.85424   0.32077   0.03178   0.00000  Uiso   1.00
H162   H     0.43079   0.17232   0.83187   0.00000  Uiso   1.00
H163   H     0.28692   0.28564   0.71921   0.00000  Uiso   1.00
H164   H     0.31304   0.05935   0.86890   0.00000  Uiso   1.00
H165   H     0.68627   0.15029   0.89451   0.00000  Uiso   1.00
H166   H     0.13702   0.44537   0.61480   0.00000  Uiso   1.00
H167   H     0.19213   0.96820   0.93046   0.00000  Uiso   1.00
H168   H     0.97916   0.15996   0.98447   0.00000  Uiso   1.00
H169   H     0.50508   0.43499   0.98985   0.00000  Uiso   1.00
H170   H     0.36529   0.56274   0.88586   0.00000  Uiso   1.00
H171   H     0.39141   0.33644   0.03555   0.00000  Uiso   1.00
H172   H     0.76464   0.42738   0.06116   0.00000  Uiso   1.00
H173   H     0.20062   0.67026   0.75006   0.00000  Uiso   1.00
H174   H     0.25574   0.19309   0.06572   0.00000  Uiso   1.00
H175   H     0.04277   0.38486   0.11973   0.00000  Uiso   1.00
O176   O     0.07549   0.63710   0.61117   0.00000  Uiso   1.00
O177   O     0.14782   0.01107   0.02531   0.00000  Uiso   1.00
O178   O     0.18038   0.26266   0.09616   0.00000  Uiso   1.00
N179   N     0.17120   0.48077   0.66091   0.00000  Uiso   1.00
N180   N     0.22270   0.03465   0.95602   0.00000  Uiso   1.00
N181   N     0.95851   0.21392   0.00653   0.00000  Uiso   1.00
N182   N     0.20542   0.60179   0.73369   0.00000  Uiso   1.00
N183   N     0.25693   0.15567   0.02880   0.00000  Uiso   1.00
N184   N     0.99274   0.33493   0.07931   0.00000  Uiso   1.00
