data_job_04193
_audit_creation_date              2018-12-19
_audit_creation_method            'Materials Studio'
_symmetry_space_group_name_H-M    'P1'
_symmetry_Int_Tables_number       1
_symmetry_cell_setting            triclinic
loop_
_symmetry_equiv_pos_as_xyz
  x,y,z
_cell_length_a                    7.6802
_cell_length_b                    12.0502
_cell_length_c                    19.9916
_cell_angle_alpha                 91.3334
_cell_angle_beta                  83.5122
_cell_angle_gamma                 97.0932
loop_
_atom_site_label
_atom_site_type_symbol
_atom_site_fract_x
_atom_site_fract_y
_atom_site_fract_z
_atom_site_U_iso_or_equiv
_atom_site_adp_type
_atom_site_occupancy
C1     C     0.56970   0.97204   0.81350   0.00000  Uiso   1.00
C2     C     0.59287   0.00578   0.73968   0.00000  Uiso   1.00
C3     C     0.72984   0.98248   0.69206   0.00000  Uiso   1.00
C4     C     0.72734   0.02060   0.62721   0.00000  Uiso   1.00
C5     C     0.78386   0.06403   0.51511   0.00000  Uiso   1.00
C6     C     0.55890   0.08009   0.85416   0.00000  Uiso   1.00
C7     C     0.66730   0.11925   0.90281   0.00000  Uiso   1.00
C8     C     0.63619   0.21991   0.93434   0.00000  Uiso   1.00
C9     C     0.63988   0.37866   0.00002   0.00000  Uiso   1.00
C10    C     0.38737   0.90504   0.82575   0.00000  Uiso   1.00
C11    C     0.35153   0.79701   0.85052   0.00000  Uiso   1.00
C12    C     0.17598   0.75030   0.85814   0.00000  Uiso   1.00
C13    C     0.91336   0.63726   0.87971   0.00000  Uiso   1.00
C14    C     0.32168   0.08117   0.78299   0.00000  Uiso   1.00
C15    C     0.45815   0.06506   0.72311   0.00000  Uiso   1.00
C16    C     0.45544   0.10322   0.65831   0.00000  Uiso   1.00
C17    C     0.59238   0.07998   0.61060   0.00000  Uiso   1.00
C18    C     0.42419   0.13937   0.83760   0.00000  Uiso   1.00
C19    C     0.39290   0.23999   0.86906   0.00000  Uiso   1.00
C20    C     0.50123   0.27930   0.91774   0.00000  Uiso   1.00
C21    C     0.25265   0.96431   0.80918   0.00000  Uiso   1.00
C22    C     0.07713   0.91776   0.81677   0.00000  Uiso   1.00
C23    C     0.04103   0.80969   0.84154   0.00000  Uiso   1.00
H24    H     0.67458   0.92589   0.82640   0.00000  Uiso   1.00
H25    H     0.83408   0.93661   0.70490   0.00000  Uiso   1.00
H26    H     0.77153   0.07335   0.91563   0.00000  Uiso   1.00
H27    H     0.45581   0.75117   0.86334   0.00000  Uiso   1.00
H28    H     0.95154   0.97467   0.56290   0.00000  Uiso   1.00
H29    H     0.81962   0.26298   0.00724   0.00000  Uiso   1.00
H30    H     0.15386   0.58359   0.89699   0.00000  Uiso   1.00
H31    H     0.21679   0.12733   0.77009   0.00000  Uiso   1.00
H32    H     0.35117   0.14909   0.64550   0.00000  Uiso   1.00
H33    H     0.28863   0.28584   0.85623   0.00000  Uiso   1.00
H34    H     0.97291   0.96366   0.80394   0.00000  Uiso   1.00
H35    H     0.55960   0.14714   0.51469   0.00000  Uiso   1.00
H36    H     0.42767   0.43544   0.95904   0.00000  Uiso   1.00
H37    H     0.76192   0.75606   0.84877   0.00000  Uiso   1.00
O38    O     0.85226   0.07162   0.45786   0.00000  Uiso   1.00
O39    O     0.67916   0.44986   0.04083   0.00000  Uiso   1.00
O40    O     0.80571   0.55852   0.89617   0.00000  Uiso   1.00
N41    N     0.84084   0.01225   0.56865   0.00000  Uiso   1.00
N42    N     0.71752   0.28181   0.98408   0.00000  Uiso   1.00
N43    N     0.09508   0.64666   0.88101   0.00000  Uiso   1.00
N44    N     0.62994   0.10505   0.54271   0.00000  Uiso   1.00
N45    N     0.50661   0.37462   0.95813   0.00000  Uiso   1.00
N46    N     0.88418   0.73946   0.85507   0.00000  Uiso   1.00
C47    C     0.43030   0.02796   0.18650   0.00000  Uiso   1.00
C48    C     0.40713   0.99422   0.26032   0.00000  Uiso   1.00
C49    C     0.27016   0.01752   0.30794   0.00000  Uiso   1.00
C50    C     0.27266   0.97940   0.37279   0.00000  Uiso   1.00
C51    C     0.21614   0.93597   0.48489   0.00000  Uiso   1.00
C52    C     0.44110   0.91991   0.14584   0.00000  Uiso   1.00
C53    C     0.33270   0.88075   0.09719   0.00000  Uiso   1.00
C54    C     0.36381   0.78009   0.06566   0.00000  Uiso   1.00
C55    C     0.36012   0.62134   0.99998   0.00000  Uiso   1.00
C56    C     0.61263   0.09496   0.17425   0.00000  Uiso   1.00
C57    C     0.64847   0.20299   0.14948   0.00000  Uiso   1.00
C58    C     0.82402   0.24970   0.14186   0.00000  Uiso   1.00
C59    C     0.08664   0.36274   0.12029   0.00000  Uiso   1.00
C60    C     0.67832   0.91883   0.21701   0.00000  Uiso   1.00
C61    C     0.54185   0.93494   0.27689   0.00000  Uiso   1.00
C62    C     0.54456   0.89678   0.34169   0.00000  Uiso   1.00
C63    C     0.40762   0.92002   0.38940   0.00000  Uiso   1.00
C64    C     0.57581   0.86063   0.16240   0.00000  Uiso   1.00
C65    C     0.60710   0.76001   0.13094   0.00000  Uiso   1.00
C66    C     0.49877   0.72070   0.08226   0.00000  Uiso   1.00
C67    C     0.74735   0.03569   0.19082   0.00000  Uiso   1.00
C68    C     0.92287   0.08224   0.18323   0.00000  Uiso   1.00
C69    C     0.95897   0.19031   0.15846   0.00000  Uiso   1.00
H70    H     0.32542   0.07411   0.17360   0.00000  Uiso   1.00
H71    H     0.16592   0.06339   0.29510   0.00000  Uiso   1.00
H72    H     0.22847   0.92665   0.08437   0.00000  Uiso   1.00
H73    H     0.54419   0.24883   0.13666   0.00000  Uiso   1.00
H74    H     0.04846   0.02533   0.43710   0.00000  Uiso   1.00
H75    H     0.18038   0.73702   0.99276   0.00000  Uiso   1.00
H76    H     0.84614   0.41641   0.10301   0.00000  Uiso   1.00
H77    H     0.78321   0.87267   0.22991   0.00000  Uiso   1.00
H78    H     0.64883   0.85091   0.35450   0.00000  Uiso   1.00
H79    H     0.71137   0.71416   0.14377   0.00000  Uiso   1.00
H80    H     0.02709   0.03634   0.19606   0.00000  Uiso   1.00
H81    H     0.44040   0.85286   0.48531   0.00000  Uiso   1.00
H82    H     0.57233   0.56456   0.04096   0.00000  Uiso   1.00
H83    H     0.23808   0.24394   0.15123   0.00000  Uiso   1.00
O84    O     0.14774   0.92838   0.54214   0.00000  Uiso   1.00
O85    O     0.32084   0.55014   0.95917   0.00000  Uiso   1.00
O86    O     0.19429   0.44148   0.10383   0.00000  Uiso   1.00
N87    N     0.15916   0.98775   0.43135   0.00000  Uiso   1.00
N88    N     0.28248   0.71819   0.01592   0.00000  Uiso   1.00
N89    N     0.90492   0.35334   0.11899   0.00000  Uiso   1.00
N90    N     0.37006   0.89495   0.45729   0.00000  Uiso   1.00
N91    N     0.49339   0.62538   0.04187   0.00000  Uiso   1.00
N92    N     0.11582   0.26054   0.14493   0.00000  Uiso   1.00
