data_job_00195
_audit_creation_date              2018-12-19
_audit_creation_method            'Materials Studio'
_symmetry_space_group_name_H-M    'P1'
_symmetry_Int_Tables_number       1
_symmetry_cell_setting            triclinic
loop_
_symmetry_equiv_pos_as_xyz
  x,y,z
_cell_length_a                    22.3791
_cell_length_b                    10.1152
_cell_length_c                    28.1000
_cell_angle_alpha                 90.0000
_cell_angle_beta                  55.3498
_cell_angle_gamma                 90.0000
loop_
_atom_site_label
_atom_site_type_symbol
_atom_site_fract_x
_atom_site_fract_y
_atom_site_fract_z
_atom_site_U_iso_or_equiv
_atom_site_adp_type
_atom_site_occupancy
C1     C     0.33770   0.97184   0.31140   0.00000  Uiso   1.00
C2     C     0.37373   0.98144   0.24634   0.00000  Uiso   1.00
C3     C     0.42591   0.07339   0.20950   0.00000  Uiso   1.00
C4     C     0.45213   0.06575   0.15138   0.00000  Uiso   1.00
C5     C     0.51187   0.09532   0.05348   0.00000  Uiso   1.00
C6     C     0.25616   0.98138   0.33938   0.00000  Uiso   1.00
C7     C     0.20950   0.07327   0.38077   0.00000  Uiso   1.00
C8     C     0.13676   0.06557   0.40098   0.00000  Uiso   1.00
C9     C     0.01397   0.09498   0.44756   0.00000  Uiso   1.00
C10    C     0.35151   0.83138   0.32264   0.00000  Uiso   1.00
C11    C     0.38500   0.79715   0.34997   0.00000  Uiso   1.00
C12    C     0.39252   0.66315   0.35610   0.00000  Uiso   1.00
C13    C     0.41777   0.45967   0.37669   0.00000  Uiso   1.00
C14    C     0.29147   0.79476   0.27370   0.00000  Uiso   1.00
C15    C     0.34861   0.88525   0.22587   0.00000  Uiso   1.00
C16    C     0.37477   0.87747   0.16779   0.00000  Uiso   1.00
C17    C     0.42698   0.96939   0.13087   0.00000  Uiso   1.00
C18    C     0.23105   0.88520   0.31890   0.00000  Uiso   1.00
C19    C     0.15836   0.87735   0.33906   0.00000  Uiso   1.00
C20    C     0.11160   0.96921   0.38047   0.00000  Uiso   1.00
C21    C     0.32640   0.73519   0.30216   0.00000  Uiso   1.00
C22    C     0.33386   0.60123   0.30825   0.00000  Uiso   1.00
C23    C     0.36736   0.56680   0.33559   0.00000  Uiso   1.00
H24    H     0.35724   0.04673   0.32735   0.00000  Uiso   1.00
H25    H     0.44532   0.14782   0.22537   0.00000  Uiso   1.00
H26    H     0.22895   0.14768   0.39662   0.00000  Uiso   1.00
H27    H     0.40443   0.87161   0.36581   0.00000  Uiso   1.00
H28    H     0.53189   0.21751   0.10328   0.00000  Uiso   1.00
H29    H     0.07565   0.21719   0.46438   0.00000  Uiso   1.00
H30    H     0.44567   0.63503   0.39943   0.00000  Uiso   1.00
H31    H     0.27192   0.71988   0.25775   0.00000  Uiso   1.00
H32    H     0.35532   0.80303   0.15195   0.00000  Uiso   1.00
H33    H     0.13895   0.80290   0.32320   0.00000  Uiso   1.00
H34    H     0.31442   0.52682   0.29240   0.00000  Uiso   1.00
H35    H     0.45884   0.93767   0.04369   0.00000  Uiso   1.00
H36    H     0.00259   0.93735   0.40480   0.00000  Uiso   1.00
H37    H     0.37262   0.35519   0.33985   0.00000  Uiso   1.00
O38    O     0.55175   0.13821   0.00514   0.00000  Uiso   1.00
O39    O     0.95318   0.13779   0.47890   0.00000  Uiso   1.00
O40    O     0.43865   0.37401   0.39369   0.00000  Uiso   1.00
N41    N     0.50326   0.14022   0.10377   0.00000  Uiso   1.00
N42    N     0.07670   0.13994   0.44137   0.00000  Uiso   1.00
N43    N     0.42263   0.59567   0.38067   0.00000  Uiso   1.00
N44    N     0.46395   0.98964   0.07171   0.00000  Uiso   1.00
N45    N     0.03739   0.98936   0.40931   0.00000  Uiso   1.00
N46    N     0.38332   0.44509   0.34861   0.00000  Uiso   1.00
C47    C     0.83770   0.47184   0.31140   0.00000  Uiso   1.00
C48    C     0.87373   0.48144   0.24634   0.00000  Uiso   1.00
C49    C     0.92591   0.57339   0.20950   0.00000  Uiso   1.00
C50    C     0.95213   0.56575   0.15138   0.00000  Uiso   1.00
C51    C     0.01187   0.59532   0.05348   0.00000  Uiso   1.00
C52    C     0.75616   0.48138   0.33938   0.00000  Uiso   1.00
C53    C     0.70950   0.57327   0.38077   0.00000  Uiso   1.00
C54    C     0.63676   0.56557   0.40098   0.00000  Uiso   1.00
C55    C     0.51397   0.59498   0.44756   0.00000  Uiso   1.00
C56    C     0.85151   0.33138   0.32264   0.00000  Uiso   1.00
C57    C     0.88500   0.29715   0.34997   0.00000  Uiso   1.00
C58    C     0.89252   0.16315   0.35610   0.00000  Uiso   1.00
C59    C     0.91777   0.95967   0.37669   0.00000  Uiso   1.00
C60    C     0.79147   0.29476   0.27370   0.00000  Uiso   1.00
C61    C     0.84861   0.38525   0.22587   0.00000  Uiso   1.00
C62    C     0.87477   0.37747   0.16779   0.00000  Uiso   1.00
C63    C     0.92698   0.46939   0.13087   0.00000  Uiso   1.00
C64    C     0.73105   0.38520   0.31890   0.00000  Uiso   1.00
C65    C     0.65836   0.37735   0.33906   0.00000  Uiso   1.00
C66    C     0.61160   0.46921   0.38047   0.00000  Uiso   1.00
C67    C     0.82640   0.23519   0.30216   0.00000  Uiso   1.00
C68    C     0.83386   0.10123   0.30825   0.00000  Uiso   1.00
C69    C     0.86736   0.06680   0.33559   0.00000  Uiso   1.00
H70    H     0.85724   0.54673   0.32735   0.00000  Uiso   1.00
H71    H     0.94532   0.64782   0.22537   0.00000  Uiso   1.00
H72    H     0.72895   0.64768   0.39662   0.00000  Uiso   1.00
H73    H     0.90443   0.37161   0.36581   0.00000  Uiso   1.00
H74    H     0.03189   0.71751   0.10328   0.00000  Uiso   1.00
H75    H     0.57565   0.71719   0.46438   0.00000  Uiso   1.00
H76    H     0.94567   0.13503   0.39943   0.00000  Uiso   1.00
H77    H     0.77192   0.21988   0.25775   0.00000  Uiso   1.00
H78    H     0.85532   0.30303   0.15195   0.00000  Uiso   1.00
H79    H     0.63895   0.30290   0.32320   0.00000  Uiso   1.00
H80    H     0.81442   0.02682   0.29240   0.00000  Uiso   1.00
H81    H     0.95884   0.43767   0.04369   0.00000  Uiso   1.00
H82    H     0.50259   0.43735   0.40480   0.00000  Uiso   1.00
H83    H     0.87262   0.85519   0.33985   0.00000  Uiso   1.00
O84    O     0.05175   0.63821   0.00514   0.00000  Uiso   1.00
O85    O     0.45318   0.63779   0.47890   0.00000  Uiso   1.00
O86    O     0.93865   0.87401   0.39369   0.00000  Uiso   1.00
N87    N     0.00326   0.64022   0.10377   0.00000  Uiso   1.00
N88    N     0.57670   0.63994   0.44137   0.00000  Uiso   1.00
N89    N     0.92263   0.09567   0.38067   0.00000  Uiso   1.00
N90    N     0.96395   0.48964   0.07171   0.00000  Uiso   1.00
N91    N     0.53739   0.48936   0.40931   0.00000  Uiso   1.00
N92    N     0.88332   0.94509   0.34861   0.00000  Uiso   1.00
C93    C     0.66230   0.97184   0.18860   0.00000  Uiso   1.00
C94    C     0.62627   0.98144   0.25366   0.00000  Uiso   1.00
C95    C     0.57409   0.07339   0.29050   0.00000  Uiso   1.00
C96    C     0.54787   0.06575   0.34862   0.00000  Uiso   1.00
C97    C     0.48813   0.09532   0.44652   0.00000  Uiso   1.00
C98    C     0.74384   0.98138   0.16062   0.00000  Uiso   1.00
C99    C     0.79050   0.07327   0.11923   0.00000  Uiso   1.00
C100   C     0.86324   0.06557   0.09902   0.00000  Uiso   1.00
C101   C     0.98603   0.09498   0.05244   0.00000  Uiso   1.00
C102   C     0.64849   0.83138   0.17736   0.00000  Uiso   1.00
C103   C     0.61500   0.79715   0.15003   0.00000  Uiso   1.00
C104   C     0.60748   0.66315   0.14390   0.00000  Uiso   1.00
C105   C     0.58223   0.45967   0.12331   0.00000  Uiso   1.00
C106   C     0.70853   0.79476   0.22630   0.00000  Uiso   1.00
C107   C     0.65139   0.88525   0.27413   0.00000  Uiso   1.00
C108   C     0.62523   0.87747   0.33221   0.00000  Uiso   1.00
C109   C     0.57302   0.96939   0.36913   0.00000  Uiso   1.00
C110   C     0.76895   0.88520   0.18110   0.00000  Uiso   1.00
C111   C     0.84164   0.87735   0.16094   0.00000  Uiso   1.00
C112   C     0.88840   0.96921   0.11953   0.00000  Uiso   1.00
C113   C     0.67360   0.73519   0.19784   0.00000  Uiso   1.00
C114   C     0.66614   0.60123   0.19175   0.00000  Uiso   1.00
C115   C     0.63264   0.56680   0.16441   0.00000  Uiso   1.00
H116   H     0.64276   0.04673   0.17265   0.00000  Uiso   1.00
H117   H     0.55468   0.14782   0.27463   0.00000  Uiso   1.00
H118   H     0.77105   0.14768   0.10338   0.00000  Uiso   1.00
H119   H     0.59557   0.87161   0.13419   0.00000  Uiso   1.00
H120   H     0.46811   0.21751   0.39672   0.00000  Uiso   1.00
H121   H     0.92435   0.21719   0.03562   0.00000  Uiso   1.00
H122   H     0.55433   0.63503   0.10057   0.00000  Uiso   1.00
H123   H     0.72808   0.71988   0.24225   0.00000  Uiso   1.00
H124   H     0.64468   0.80303   0.34805   0.00000  Uiso   1.00
H125   H     0.86105   0.80290   0.17680   0.00000  Uiso   1.00
H126   H     0.68558   0.52682   0.20760   0.00000  Uiso   1.00
H127   H     0.54116   0.93767   0.45631   0.00000  Uiso   1.00
H128   H     0.99741   0.93735   0.09520   0.00000  Uiso   1.00
H129   H     0.62738   0.35519   0.16015   0.00000  Uiso   1.00
O130   O     0.44825   0.13821   0.49486   0.00000  Uiso   1.00
O131   O     0.04682   0.13779   0.02110   0.00000  Uiso   1.00
O132   O     0.56135   0.37401   0.10631   0.00000  Uiso   1.00
N133   N     0.49674   0.14022   0.39623   0.00000  Uiso   1.00
N134   N     0.92330   0.13994   0.05863   0.00000  Uiso   1.00
N135   N     0.57737   0.59567   0.11933   0.00000  Uiso   1.00
N136   N     0.53605   0.98964   0.42829   0.00000  Uiso   1.00
N137   N     0.96261   0.98936   0.09069   0.00000  Uiso   1.00
N138   N     0.61668   0.44509   0.15139   0.00000  Uiso   1.00
C139   C     0.16230   0.47184   0.18860   0.00000  Uiso   1.00
C140   C     0.12627   0.48144   0.25366   0.00000  Uiso   1.00
C141   C     0.07409   0.57339   0.29050   0.00000  Uiso   1.00
C142   C     0.04787   0.56575   0.34862   0.00000  Uiso   1.00
C143   C     0.98813   0.59532   0.44652   0.00000  Uiso   1.00
C144   C     0.24384   0.48138   0.16062   0.00000  Uiso   1.00
C145   C     0.29050   0.57327   0.11923   0.00000  Uiso   1.00
C146   C     0.36324   0.56557   0.09902   0.00000  Uiso   1.00
C147   C     0.48603   0.59498   0.05244   0.00000  Uiso   1.00
C148   C     0.14849   0.33138   0.17736   0.00000  Uiso   1.00
C149   C     0.11500   0.29715   0.15003   0.00000  Uiso   1.00
C150   C     0.10748   0.16315   0.14390   0.00000  Uiso   1.00
C151   C     0.08223   0.95967   0.12331   0.00000  Uiso   1.00
C152   C     0.20853   0.29476   0.22630   0.00000  Uiso   1.00
C153   C     0.15139   0.38525   0.27413   0.00000  Uiso   1.00
C154   C     0.12523   0.37747   0.33221   0.00000  Uiso   1.00
C155   C     0.07302   0.46939   0.36913   0.00000  Uiso   1.00
C156   C     0.26895   0.38520   0.18110   0.00000  Uiso   1.00
C157   C     0.34164   0.37735   0.16094   0.00000  Uiso   1.00
C158   C     0.38840   0.46921   0.11953   0.00000  Uiso   1.00
C159   C     0.17360   0.23519   0.19784   0.00000  Uiso   1.00
C160   C     0.16614   0.10123   0.19175   0.00000  Uiso   1.00
C161   C     0.13264   0.06680   0.16441   0.00000  Uiso   1.00
H162   H     0.14276   0.54673   0.17265   0.00000  Uiso   1.00
H163   H     0.05468   0.64782   0.27463   0.00000  Uiso   1.00
H164   H     0.27105   0.64768   0.10338   0.00000  Uiso   1.00
H165   H     0.09557   0.37161   0.13419   0.00000  Uiso   1.00
H166   H     0.96811   0.71751   0.39672   0.00000  Uiso   1.00
H167   H     0.42435   0.71719   0.03562   0.00000  Uiso   1.00
H168   H     0.05433   0.13503   0.10057   0.00000  Uiso   1.00
H169   H     0.22808   0.21988   0.24225   0.00000  Uiso   1.00
H170   H     0.14468   0.30303   0.34805   0.00000  Uiso   1.00
H171   H     0.36105   0.30290   0.17680   0.00000  Uiso   1.00
H172   H     0.18558   0.02682   0.20760   0.00000  Uiso   1.00
H173   H     0.04116   0.43767   0.45631   0.00000  Uiso   1.00
H174   H     0.49741   0.43735   0.09520   0.00000  Uiso   1.00
H175   H     0.12738   0.85519   0.16015   0.00000  Uiso   1.00
O176   O     0.94825   0.63821   0.49486   0.00000  Uiso   1.00
O177   O     0.54682   0.63779   0.02110   0.00000  Uiso   1.00
O178   O     0.06135   0.87401   0.10631   0.00000  Uiso   1.00
N179   N     0.99674   0.64022   0.39623   0.00000  Uiso   1.00
N180   N     0.42330   0.63994   0.05863   0.00000  Uiso   1.00
N181   N     0.07737   0.09567   0.11933   0.00000  Uiso   1.00
N182   N     0.03605   0.48964   0.42829   0.00000  Uiso   1.00
N183   N     0.46261   0.48936   0.09069   0.00000  Uiso   1.00
N184   N     0.11668   0.94509   0.15139   0.00000  Uiso   1.00
C185   C     0.66230   0.02816   0.68860   0.00000  Uiso   1.00
C186   C     0.62627   0.01856   0.75366   0.00000  Uiso   1.00
C187   C     0.57409   0.92661   0.79050   0.00000  Uiso   1.00
C188   C     0.54787   0.93425   0.84862   0.00000  Uiso   1.00
C189   C     0.48813   0.90468   0.94652   0.00000  Uiso   1.00
C190   C     0.74384   0.01862   0.66062   0.00000  Uiso   1.00
C191   C     0.79050   0.92673   0.61923   0.00000  Uiso   1.00
C192   C     0.86324   0.93443   0.59902   0.00000  Uiso   1.00
C193   C     0.98603   0.90502   0.55244   0.00000  Uiso   1.00
C194   C     0.64849   0.16862   0.67736   0.00000  Uiso   1.00
C195   C     0.61500   0.20285   0.65003   0.00000  Uiso   1.00
C196   C     0.60748   0.33685   0.64390   0.00000  Uiso   1.00
C197   C     0.58223   0.54033   0.62331   0.00000  Uiso   1.00
C198   C     0.70853   0.20524   0.72630   0.00000  Uiso   1.00
C199   C     0.65139   0.11475   0.77413   0.00000  Uiso   1.00
C200   C     0.62523   0.12253   0.83221   0.00000  Uiso   1.00
C201   C     0.57302   0.03061   0.86913   0.00000  Uiso   1.00
C202   C     0.76895   0.11480   0.68110   0.00000  Uiso   1.00
C203   C     0.84164   0.12265   0.66094   0.00000  Uiso   1.00
C204   C     0.88840   0.03079   0.61953   0.00000  Uiso   1.00
C205   C     0.67360   0.26481   0.69784   0.00000  Uiso   1.00
C206   C     0.66614   0.39877   0.69175   0.00000  Uiso   1.00
C207   C     0.63264   0.43320   0.66441   0.00000  Uiso   1.00
H208   H     0.64276   0.95327   0.67265   0.00000  Uiso   1.00
H209   H     0.55468   0.85218   0.77463   0.00000  Uiso   1.00
H210   H     0.77105   0.85232   0.60338   0.00000  Uiso   1.00
H211   H     0.59557   0.12839   0.63419   0.00000  Uiso   1.00
H212   H     0.46811   0.78249   0.89672   0.00000  Uiso   1.00
H213   H     0.92435   0.78281   0.53562   0.00000  Uiso   1.00
H214   H     0.55433   0.36497   0.60057   0.00000  Uiso   1.00
H215   H     0.72808   0.28012   0.74225   0.00000  Uiso   1.00
H216   H     0.64468   0.19697   0.84805   0.00000  Uiso   1.00
H217   H     0.86105   0.19710   0.67680   0.00000  Uiso   1.00
H218   H     0.68558   0.47318   0.70760   0.00000  Uiso   1.00
H219   H     0.54116   0.06233   0.95631   0.00000  Uiso   1.00
H220   H     0.99741   0.06265   0.59520   0.00000  Uiso   1.00
H221   H     0.62738   0.64481   0.66015   0.00000  Uiso   1.00
O222   O     0.44825   0.86179   0.99486   0.00000  Uiso   1.00
O223   O     0.04682   0.86221   0.52110   0.00000  Uiso   1.00
O224   O     0.56135   0.62599   0.60631   0.00000  Uiso   1.00
N225   N     0.49674   0.85978   0.89623   0.00000  Uiso   1.00
N226   N     0.92330   0.86006   0.55863   0.00000  Uiso   1.00
N227   N     0.57737   0.40433   0.61933   0.00000  Uiso   1.00
N228   N     0.53605   0.01036   0.92829   0.00000  Uiso   1.00
N229   N     0.96261   0.01064   0.59069   0.00000  Uiso   1.00
N230   N     0.61668   0.55491   0.65139   0.00000  Uiso   1.00
C231   C     0.16230   0.52816   0.68860   0.00000  Uiso   1.00
C232   C     0.12627   0.51856   0.75366   0.00000  Uiso   1.00
C233   C     0.07409   0.42661   0.79050   0.00000  Uiso   1.00
C234   C     0.04787   0.43425   0.84862   0.00000  Uiso   1.00
C235   C     0.98813   0.40468   0.94652   0.00000  Uiso   1.00
C236   C     0.24384   0.51862   0.66062   0.00000  Uiso   1.00
C237   C     0.29050   0.42673   0.61923   0.00000  Uiso   1.00
C238   C     0.36324   0.43443   0.59902   0.00000  Uiso   1.00
C239   C     0.48603   0.40502   0.55244   0.00000  Uiso   1.00
C240   C     0.14849   0.66862   0.67736   0.00000  Uiso   1.00
C241   C     0.11500   0.70285   0.65003   0.00000  Uiso   1.00
C242   C     0.10748   0.83685   0.64390   0.00000  Uiso   1.00
C243   C     0.08223   0.04033   0.62331   0.00000  Uiso   1.00
C244   C     0.20853   0.70524   0.72630   0.00000  Uiso   1.00
C245   C     0.15139   0.61475   0.77413   0.00000  Uiso   1.00
C246   C     0.12523   0.62253   0.83221   0.00000  Uiso   1.00
C247   C     0.07302   0.53061   0.86913   0.00000  Uiso   1.00
C248   C     0.26895   0.61480   0.68110   0.00000  Uiso   1.00
C249   C     0.34164   0.62265   0.66094   0.00000  Uiso   1.00
C250   C     0.38840   0.53079   0.61953   0.00000  Uiso   1.00
C251   C     0.17360   0.76481   0.69784   0.00000  Uiso   1.00
C252   C     0.16614   0.89877   0.69175   0.00000  Uiso   1.00
C253   C     0.13264   0.93320   0.66441   0.00000  Uiso   1.00
H254   H     0.14276   0.45327   0.67265   0.00000  Uiso   1.00
H255   H     0.05468   0.35218   0.77463   0.00000  Uiso   1.00
H256   H     0.27105   0.35232   0.60338   0.00000  Uiso   1.00
H257   H     0.09557   0.62839   0.63419   0.00000  Uiso   1.00
H258   H     0.96811   0.28249   0.89672   0.00000  Uiso   1.00
H259   H     0.42435   0.28281   0.53562   0.00000  Uiso   1.00
H260   H     0.05433   0.86497   0.60057   0.00000  Uiso   1.00
H261   H     0.22808   0.78012   0.74225   0.00000  Uiso   1.00
H262   H     0.14468   0.69697   0.84805   0.00000  Uiso   1.00
H263   H     0.36105   0.69710   0.67680   0.00000  Uiso   1.00
H264   H     0.18558   0.97318   0.70760   0.00000  Uiso   1.00
H265   H     0.04116   0.56233   0.95631   0.00000  Uiso   1.00
H266   H     0.49741   0.56265   0.59520   0.00000  Uiso   1.00
H267   H     0.12738   0.14481   0.66015   0.00000  Uiso   1.00
O268   O     0.94825   0.36179   0.99486   0.00000  Uiso   1.00
O269   O     0.54682   0.36221   0.52110   0.00000  Uiso   1.00
O270   O     0.06135   0.12599   0.60631   0.00000  Uiso   1.00
N271   N     0.99674   0.35978   0.89623   0.00000  Uiso   1.00
N272   N     0.42330   0.36006   0.55863   0.00000  Uiso   1.00
N273   N     0.07737   0.90433   0.61933   0.00000  Uiso   1.00
N274   N     0.03605   0.51036   0.92829   0.00000  Uiso   1.00
N275   N     0.46261   0.51064   0.59069   0.00000  Uiso   1.00
N276   N     0.11668   0.05491   0.65139   0.00000  Uiso   1.00
C277   C     0.33770   0.02816   0.81140   0.00000  Uiso   1.00
C278   C     0.37373   0.01856   0.74634   0.00000  Uiso   1.00
C279   C     0.42591   0.92661   0.70950   0.00000  Uiso   1.00
C280   C     0.45213   0.93425   0.65138   0.00000  Uiso   1.00
C281   C     0.51187   0.90468   0.55348   0.00000  Uiso   1.00
C282   C     0.25616   0.01862   0.83938   0.00000  Uiso   1.00
C283   C     0.20950   0.92673   0.88077   0.00000  Uiso   1.00
C284   C     0.13676   0.93443   0.90098   0.00000  Uiso   1.00
C285   C     0.01397   0.90502   0.94756   0.00000  Uiso   1.00
C286   C     0.35151   0.16862   0.82264   0.00000  Uiso   1.00
C287   C     0.38500   0.20285   0.84997   0.00000  Uiso   1.00
C288   C     0.39252   0.33685   0.85610   0.00000  Uiso   1.00
C289   C     0.41777   0.54033   0.87669   0.00000  Uiso   1.00
C290   C     0.29147   0.20524   0.77370   0.00000  Uiso   1.00
C291   C     0.34861   0.11475   0.72587   0.00000  Uiso   1.00
C292   C     0.37477   0.12253   0.66779   0.00000  Uiso   1.00
C293   C     0.42698   0.03061   0.63087   0.00000  Uiso   1.00
C294   C     0.23105   0.11480   0.81890   0.00000  Uiso   1.00
C295   C     0.15836   0.12265   0.83906   0.00000  Uiso   1.00
C296   C     0.11160   0.03079   0.88047   0.00000  Uiso   1.00
C297   C     0.32640   0.26481   0.80216   0.00000  Uiso   1.00
C298   C     0.33386   0.39877   0.80825   0.00000  Uiso   1.00
C299   C     0.36736   0.43320   0.83559   0.00000  Uiso   1.00
H300   H     0.35724   0.95327   0.82735   0.00000  Uiso   1.00
H301   H     0.44532   0.85218   0.72537   0.00000  Uiso   1.00
H302   H     0.22895   0.85232   0.89662   0.00000  Uiso   1.00
H303   H     0.40443   0.12839   0.86581   0.00000  Uiso   1.00
H304   H     0.53189   0.78249   0.60328   0.00000  Uiso   1.00
H305   H     0.07565   0.78281   0.96438   0.00000  Uiso   1.00
H306   H     0.44567   0.36497   0.89943   0.00000  Uiso   1.00
H307   H     0.27192   0.28012   0.75775   0.00000  Uiso   1.00
H308   H     0.35532   0.19697   0.65195   0.00000  Uiso   1.00
H309   H     0.13895   0.19710   0.82320   0.00000  Uiso   1.00
H310   H     0.31442   0.47318   0.79240   0.00000  Uiso   1.00
H311   H     0.45884   0.06233   0.54369   0.00000  Uiso   1.00
H312   H     0.00259   0.06265   0.90480   0.00000  Uiso   1.00
H313   H     0.37262   0.64481   0.83985   0.00000  Uiso   1.00
O314   O     0.55175   0.86179   0.50514   0.00000  Uiso   1.00
O315   O     0.95318   0.86221   0.97890   0.00000  Uiso   1.00
O316   O     0.43865   0.62599   0.89369   0.00000  Uiso   1.00
N317   N     0.50326   0.85978   0.60377   0.00000  Uiso   1.00
N318   N     0.07670   0.86006   0.94137   0.00000  Uiso   1.00
N319   N     0.42263   0.40433   0.88067   0.00000  Uiso   1.00
N320   N     0.46395   0.01036   0.57171   0.00000  Uiso   1.00
N321   N     0.03739   0.01064   0.90931   0.00000  Uiso   1.00
N322   N     0.38332   0.55491   0.84861   0.00000  Uiso   1.00
C323   C     0.83770   0.52816   0.81140   0.00000  Uiso   1.00
C324   C     0.87373   0.51856   0.74634   0.00000  Uiso   1.00
C325   C     0.92591   0.42661   0.70950   0.00000  Uiso   1.00
C326   C     0.95213   0.43425   0.65138   0.00000  Uiso   1.00
C327   C     0.01187   0.40468   0.55348   0.00000  Uiso   1.00
C328   C     0.75616   0.51862   0.83938   0.00000  Uiso   1.00
C329   C     0.70950   0.42673   0.88077   0.00000  Uiso   1.00
C330   C     0.63676   0.43443   0.90098   0.00000  Uiso   1.00
C331   C     0.51397   0.40502   0.94756   0.00000  Uiso   1.00
C332   C     0.85151   0.66862   0.82264   0.00000  Uiso   1.00
C333   C     0.88500   0.70285   0.84997   0.00000  Uiso   1.00
C334   C     0.89252   0.83685   0.85610   0.00000  Uiso   1.00
C335   C     0.91777   0.04033   0.87669   0.00000  Uiso   1.00
C336   C     0.79147   0.70524   0.77370   0.00000  Uiso   1.00
C337   C     0.84861   0.61475   0.72587   0.00000  Uiso   1.00
C338   C     0.87477   0.62253   0.66779   0.00000  Uiso   1.00
C339   C     0.92698   0.53061   0.63087   0.00000  Uiso   1.00
C340   C     0.73105   0.61480   0.81890   0.00000  Uiso   1.00
C341   C     0.65836   0.62265   0.83906   0.00000  Uiso   1.00
C342   C     0.61160   0.53079   0.88047   0.00000  Uiso   1.00
C343   C     0.82640   0.76481   0.80216   0.00000  Uiso   1.00
C344   C     0.83386   0.89877   0.80825   0.00000  Uiso   1.00
C345   C     0.86736   0.93320   0.83559   0.00000  Uiso   1.00
H346   H     0.85724   0.45327   0.82735   0.00000  Uiso   1.00
H347   H     0.94532   0.35218   0.72537   0.00000  Uiso   1.00
H348   H     0.72895   0.35232   0.89662   0.00000  Uiso   1.00
H349   H     0.90443   0.62839   0.86581   0.00000  Uiso   1.00
H350   H     0.03189   0.28249   0.60328   0.00000  Uiso   1.00
H351   H     0.57565   0.28281   0.96438   0.00000  Uiso   1.00
H352   H     0.94567   0.86497   0.89943   0.00000  Uiso   1.00
H353   H     0.77192   0.78012   0.75775   0.00000  Uiso   1.00
H354   H     0.85532   0.69697   0.65195   0.00000  Uiso   1.00
H355   H     0.63895   0.69710   0.82320   0.00000  Uiso   1.00
H356   H     0.81442   0.97318   0.79240   0.00000  Uiso   1.00
H357   H     0.95884   0.56233   0.54369   0.00000  Uiso   1.00
H358   H     0.50259   0.56265   0.90480   0.00000  Uiso   1.00
H359   H     0.87262   0.14481   0.83985   0.00000  Uiso   1.00
O360   O     0.05175   0.36179   0.50514   0.00000  Uiso   1.00
O361   O     0.45318   0.36221   0.97890   0.00000  Uiso   1.00
O362   O     0.93865   0.12599   0.89369   0.00000  Uiso   1.00
N363   N     0.00326   0.35978   0.60377   0.00000  Uiso   1.00
N364   N     0.57670   0.36006   0.94137   0.00000  Uiso   1.00
N365   N     0.92263   0.90433   0.88067   0.00000  Uiso   1.00
N366   N     0.96395   0.51036   0.57171   0.00000  Uiso   1.00
N367   N     0.53739   0.51064   0.90931   0.00000  Uiso   1.00
N368   N     0.88332   0.05491   0.84861   0.00000  Uiso   1.00
