data_job_05198
_audit_creation_date              2018-12-19
_audit_creation_method            'Materials Studio'
_symmetry_space_group_name_H-M    'P1'
_symmetry_Int_Tables_number       1
_symmetry_cell_setting            triclinic
loop_
_symmetry_equiv_pos_as_xyz
  x,y,z
_cell_length_a                    12.0696
_cell_length_b                    14.4069
_cell_length_c                    13.8503
_cell_angle_alpha                 90.0000
_cell_angle_beta                  90.0000
_cell_angle_gamma                 90.0000
loop_
_atom_site_label
_atom_site_type_symbol
_atom_site_fract_x
_atom_site_fract_y
_atom_site_fract_z
_atom_site_U_iso_or_equiv
_atom_site_adp_type
_atom_site_occupancy
C1     C     0.61802   0.03975   0.44756   0.00000  Uiso   1.00
C2     C     0.56159   0.12713   0.40957   0.00000  Uiso   1.00
C3     C     0.57742   0.16606   0.31897   0.00000  Uiso   1.00
C4     C     0.51807   0.24611   0.29799   0.00000  Uiso   1.00
C5     C     0.44153   0.37579   0.22880   0.00000  Uiso   1.00
C6     C     0.67595   0.06808   0.54085   0.00000  Uiso   1.00
C7     C     0.78795   0.05734   0.56063   0.00000  Uiso   1.00
C8     C     0.82486   0.08767   0.65018   0.00000  Uiso   1.00
C9     C     0.92587   0.12561   0.78482   0.00000  Uiso   1.00
C10    C     0.52498   0.97404   0.47714   0.00000  Uiso   1.00
C11    C     0.51004   0.88421   0.44336   0.00000  Uiso   1.00
C12    C     0.41985   0.83535   0.47928   0.00000  Uiso   1.00
C13    C     0.28644   0.72727   0.51500   0.00000  Uiso   1.00
C14    C     0.48444   0.11270   0.57144   0.00000  Uiso   1.00
C15    C     0.48904   0.16676   0.47686   0.00000  Uiso   1.00
C16    C     0.42964   0.24677   0.45602   0.00000  Uiso   1.00
C17    C     0.44538   0.28580   0.36540   0.00000  Uiso   1.00
C18    C     0.60341   0.10770   0.60814   0.00000  Uiso   1.00
C19    C     0.64016   0.13805   0.69769   0.00000  Uiso   1.00
C20    C     0.75218   0.12736   0.71759   0.00000  Uiso   1.00
C21    C     0.45242   0.01366   0.54442   0.00000  Uiso   1.00
C22    C     0.36225   0.96493   0.58041   0.00000  Uiso   1.00
C23    C     0.34717   0.87505   0.54669   0.00000  Uiso   1.00
H24    H     0.67451   0.00890   0.39518   0.00000  Uiso   1.00
H25    H     0.63359   0.13538   0.26692   0.00000  Uiso   1.00
H26    H     0.84407   0.02667   0.50855   0.00000  Uiso   1.00
H27    H     0.56620   0.85357   0.39129   0.00000  Uiso   1.00
H28    H     0.55626   0.29309   0.15440   0.00000  Uiso   1.00
H29    H     0.00007   0.06384   0.66390   0.00000  Uiso   1.00
H30    H     0.41413   0.69883   0.41665   0.00000  Uiso   1.00
H31    H     0.42795   0.14355   0.62383   0.00000  Uiso   1.00
H32    H     0.37350   0.27741   0.50811   0.00000  Uiso   1.00
H33    H     0.58399   0.16870   0.74974   0.00000  Uiso   1.00
H34    H     0.30612   0.99561   0.63248   0.00000  Uiso   1.00
H35    H     0.34517   0.40837   0.35017   0.00000  Uiso   1.00
H36    H     0.78898   0.17912   0.85967   0.00000  Uiso   1.00
H37    H     0.20303   0.81412   0.61241   0.00000  Uiso   1.00
O38    O     0.41937   0.43638   0.17205   0.00000  Uiso   1.00
O39    O     0.00163   0.13559   0.84050   0.00000  Uiso   1.00
O40    O     0.23288   0.65672   0.51611   0.00000  Uiso   1.00
N41    N     0.51403   0.30184   0.21635   0.00000  Uiso   1.00
N42    N     0.92898   0.08752   0.69270   0.00000  Uiso   1.00
N43    N     0.38118   0.74626   0.46156   0.00000  Uiso   1.00
N44    N     0.40044   0.36387   0.32169   0.00000  Uiso   1.00
N45    N     0.81539   0.14955   0.79803   0.00000  Uiso   1.00
N46    N     0.26760   0.80829   0.56689   0.00000  Uiso   1.00
C47    C     0.38198   0.96025   0.94756   0.00000  Uiso   1.00
C48    C     0.43841   0.87287   0.90957   0.00000  Uiso   1.00
C49    C     0.42258   0.83394   0.81897   0.00000  Uiso   1.00
C50    C     0.48193   0.75389   0.79799   0.00000  Uiso   1.00
C51    C     0.55847   0.62421   0.72880   0.00000  Uiso   1.00
C52    C     0.32405   0.93192   0.04085   0.00000  Uiso   1.00
C53    C     0.21205   0.94266   0.06063   0.00000  Uiso   1.00
C54    C     0.17514   0.91233   0.15018   0.00000  Uiso   1.00
C55    C     0.07413   0.87439   0.28482   0.00000  Uiso   1.00
C56    C     0.47502   0.02596   0.97714   0.00000  Uiso   1.00
C57    C     0.48996   0.11579   0.94336   0.00000  Uiso   1.00
C58    C     0.58015   0.16465   0.97928   0.00000  Uiso   1.00
C59    C     0.71356   0.27273   0.01500   0.00000  Uiso   1.00
C60    C     0.51556   0.88730   0.07144   0.00000  Uiso   1.00
C61    C     0.51096   0.83324   0.97686   0.00000  Uiso   1.00
C62    C     0.57036   0.75323   0.95602   0.00000  Uiso   1.00
C63    C     0.55462   0.71420   0.86540   0.00000  Uiso   1.00
C64    C     0.39659   0.89230   0.10814   0.00000  Uiso   1.00
C65    C     0.35984   0.86195   0.19769   0.00000  Uiso   1.00
C66    C     0.24782   0.87264   0.21759   0.00000  Uiso   1.00
C67    C     0.54758   0.98634   0.04442   0.00000  Uiso   1.00
C68    C     0.63775   0.03507   0.08041   0.00000  Uiso   1.00
C69    C     0.65283   0.12495   0.04669   0.00000  Uiso   1.00
H70    H     0.32549   0.99110   0.89518   0.00000  Uiso   1.00
H71    H     0.36641   0.86462   0.76692   0.00000  Uiso   1.00
H72    H     0.15593   0.97333   0.00855   0.00000  Uiso   1.00
H73    H     0.43380   0.14643   0.89129   0.00000  Uiso   1.00
H74    H     0.44374   0.70691   0.65440   0.00000  Uiso   1.00
H75    H     0.99993   0.93616   0.16390   0.00000  Uiso   1.00
H76    H     0.58587   0.30117   0.91665   0.00000  Uiso   1.00
H77    H     0.57205   0.85645   0.12383   0.00000  Uiso   1.00
H78    H     0.62650   0.72259   0.00811   0.00000  Uiso   1.00
H79    H     0.41601   0.83130   0.24974   0.00000  Uiso   1.00
H80    H     0.69388   0.00439   0.13248   0.00000  Uiso   1.00
H81    H     0.65483   0.59163   0.85017   0.00000  Uiso   1.00
H82    H     0.21102   0.82088   0.35967   0.00000  Uiso   1.00
H83    H     0.79697   0.18588   0.11241   0.00000  Uiso   1.00
O84    O     0.58063   0.56362   0.67205   0.00000  Uiso   1.00
O85    O     0.99837   0.86441   0.34050   0.00000  Uiso   1.00
O86    O     0.76712   0.34328   0.01611   0.00000  Uiso   1.00
N87    N     0.48597   0.69816   0.71635   0.00000  Uiso   1.00
N88    N     0.07102   0.91248   0.19270   0.00000  Uiso   1.00
N89    N     0.61882   0.25374   0.96156   0.00000  Uiso   1.00
N90    N     0.59956   0.63613   0.82169   0.00000  Uiso   1.00
N91    N     0.18461   0.85045   0.29803   0.00000  Uiso   1.00
N92    N     0.73240   0.19171   0.06689   0.00000  Uiso   1.00
C93    C     0.11802   0.46025   0.44756   0.00000  Uiso   1.00
C94    C     0.06159   0.37287   0.40957   0.00000  Uiso   1.00
C95    C     0.07742   0.33394   0.31897   0.00000  Uiso   1.00
C96    C     0.01807   0.25389   0.29799   0.00000  Uiso   1.00
C97    C     0.94153   0.12421   0.22880   0.00000  Uiso   1.00
C98    C     0.17595   0.43192   0.54085   0.00000  Uiso   1.00
C99    C     0.28795   0.44266   0.56063   0.00000  Uiso   1.00
C100   C     0.32486   0.41233   0.65018   0.00000  Uiso   1.00
C101   C     0.42587   0.37439   0.78482   0.00000  Uiso   1.00
C102   C     0.02498   0.52596   0.47714   0.00000  Uiso   1.00
C103   C     0.01004   0.61579   0.44336   0.00000  Uiso   1.00
C104   C     0.91985   0.66465   0.47928   0.00000  Uiso   1.00
C105   C     0.78644   0.77273   0.51500   0.00000  Uiso   1.00
C106   C     0.98444   0.38730   0.57144   0.00000  Uiso   1.00
C107   C     0.98904   0.33324   0.47686   0.00000  Uiso   1.00
C108   C     0.92964   0.25323   0.45602   0.00000  Uiso   1.00
C109   C     0.94538   0.21420   0.36540   0.00000  Uiso   1.00
C110   C     0.10341   0.39230   0.60814   0.00000  Uiso   1.00
C111   C     0.14016   0.36195   0.69769   0.00000  Uiso   1.00
C112   C     0.25218   0.37264   0.71759   0.00000  Uiso   1.00
C113   C     0.95242   0.48634   0.54442   0.00000  Uiso   1.00
C114   C     0.86225   0.53507   0.58041   0.00000  Uiso   1.00
C115   C     0.84717   0.62495   0.54669   0.00000  Uiso   1.00
H116   H     0.17451   0.49110   0.39518   0.00000  Uiso   1.00
H117   H     0.13359   0.36462   0.26692   0.00000  Uiso   1.00
H118   H     0.34407   0.47333   0.50855   0.00000  Uiso   1.00
H119   H     0.06620   0.64643   0.39129   0.00000  Uiso   1.00
H120   H     0.05626   0.20691   0.15440   0.00000  Uiso   1.00
H121   H     0.50007   0.43616   0.66390   0.00000  Uiso   1.00
H122   H     0.91413   0.80117   0.41665   0.00000  Uiso   1.00
H123   H     0.92795   0.35645   0.62383   0.00000  Uiso   1.00
H124   H     0.87350   0.22259   0.50811   0.00000  Uiso   1.00
H125   H     0.08399   0.33130   0.74974   0.00000  Uiso   1.00
H126   H     0.80612   0.50439   0.63248   0.00000  Uiso   1.00
H127   H     0.84517   0.09163   0.35017   0.00000  Uiso   1.00
H128   H     0.28898   0.32088   0.85967   0.00000  Uiso   1.00
H129   H     0.70303   0.68588   0.61241   0.00000  Uiso   1.00
O130   O     0.91937   0.06362   0.17205   0.00000  Uiso   1.00
O131   O     0.50163   0.36441   0.84050   0.00000  Uiso   1.00
O132   O     0.73288   0.84328   0.51611   0.00000  Uiso   1.00
N133   N     0.01403   0.19816   0.21635   0.00000  Uiso   1.00
N134   N     0.42898   0.41248   0.69270   0.00000  Uiso   1.00
N135   N     0.88118   0.75374   0.46156   0.00000  Uiso   1.00
N136   N     0.90044   0.13613   0.32169   0.00000  Uiso   1.00
N137   N     0.31539   0.35045   0.79803   0.00000  Uiso   1.00
N138   N     0.76760   0.69171   0.56689   0.00000  Uiso   1.00
C139   C     0.88198   0.53975   0.94756   0.00000  Uiso   1.00
C140   C     0.93841   0.62713   0.90957   0.00000  Uiso   1.00
C141   C     0.92258   0.66606   0.81897   0.00000  Uiso   1.00
C142   C     0.98193   0.74611   0.79799   0.00000  Uiso   1.00
C143   C     0.05847   0.87579   0.72880   0.00000  Uiso   1.00
C144   C     0.82405   0.56808   0.04085   0.00000  Uiso   1.00
C145   C     0.71205   0.55734   0.06063   0.00000  Uiso   1.00
C146   C     0.67514   0.58767   0.15018   0.00000  Uiso   1.00
C147   C     0.57413   0.62561   0.28482   0.00000  Uiso   1.00
C148   C     0.97502   0.47404   0.97714   0.00000  Uiso   1.00
C149   C     0.98996   0.38421   0.94336   0.00000  Uiso   1.00
C150   C     0.08015   0.33535   0.97928   0.00000  Uiso   1.00
C151   C     0.21356   0.22727   0.01500   0.00000  Uiso   1.00
C152   C     0.01556   0.61270   0.07144   0.00000  Uiso   1.00
C153   C     0.01096   0.66676   0.97686   0.00000  Uiso   1.00
C154   C     0.07036   0.74677   0.95602   0.00000  Uiso   1.00
C155   C     0.05462   0.78580   0.86540   0.00000  Uiso   1.00
C156   C     0.89659   0.60770   0.10814   0.00000  Uiso   1.00
C157   C     0.85984   0.63805   0.19769   0.00000  Uiso   1.00
C158   C     0.74782   0.62736   0.21759   0.00000  Uiso   1.00
C159   C     0.04758   0.51366   0.04442   0.00000  Uiso   1.00
C160   C     0.13775   0.46493   0.08041   0.00000  Uiso   1.00
C161   C     0.15283   0.37505   0.04669   0.00000  Uiso   1.00
H162   H     0.82549   0.50890   0.89518   0.00000  Uiso   1.00
H163   H     0.86641   0.63538   0.76692   0.00000  Uiso   1.00
H164   H     0.65593   0.52667   0.00855   0.00000  Uiso   1.00
H165   H     0.93380   0.35357   0.89129   0.00000  Uiso   1.00
H166   H     0.94374   0.79309   0.65440   0.00000  Uiso   1.00
H167   H     0.49993   0.56384   0.16390   0.00000  Uiso   1.00
H168   H     0.08587   0.19883   0.91665   0.00000  Uiso   1.00
H169   H     0.07205   0.64355   0.12383   0.00000  Uiso   1.00
H170   H     0.12650   0.77741   0.00811   0.00000  Uiso   1.00
H171   H     0.91601   0.66870   0.24974   0.00000  Uiso   1.00
H172   H     0.19388   0.49561   0.13248   0.00000  Uiso   1.00
H173   H     0.15483   0.90837   0.85017   0.00000  Uiso   1.00
H174   H     0.71102   0.67912   0.35967   0.00000  Uiso   1.00
H175   H     0.29697   0.31412   0.11241   0.00000  Uiso   1.00
O176   O     0.08063   0.93638   0.67205   0.00000  Uiso   1.00
O177   O     0.49837   0.63559   0.34050   0.00000  Uiso   1.00
O178   O     0.26712   0.15672   0.01611   0.00000  Uiso   1.00
N179   N     0.98597   0.80184   0.71635   0.00000  Uiso   1.00
N180   N     0.57102   0.58752   0.19270   0.00000  Uiso   1.00
N181   N     0.11882   0.24626   0.96156   0.00000  Uiso   1.00
N182   N     0.09956   0.86387   0.82169   0.00000  Uiso   1.00
N183   N     0.68461   0.64955   0.29803   0.00000  Uiso   1.00
N184   N     0.23240   0.30829   0.06689   0.00000  Uiso   1.00
