data_job_03541
_audit_creation_date              2018-12-19
_audit_creation_method            'Materials Studio'
_symmetry_space_group_name_H-M    'P1'
_symmetry_Int_Tables_number       1
_symmetry_cell_setting            triclinic
loop_
_symmetry_equiv_pos_as_xyz
  x,y,z
_cell_length_a                    7.9079
_cell_length_b                    26.1130
_cell_length_c                    17.0034
_cell_angle_alpha                 90.0000
_cell_angle_beta                  132.1239
_cell_angle_gamma                 90.0000
loop_
_atom_site_label
_atom_site_type_symbol
_atom_site_fract_x
_atom_site_fract_y
_atom_site_fract_z
_atom_site_U_iso_or_equiv
_atom_site_adp_type
_atom_site_occupancy
C1     C     0.23624   0.92438   0.74844   0.00000  Uiso   1.00
C2     C     0.19988   0.88112   0.67818   0.00000  Uiso   1.00
C3     C     0.99143   0.85962   0.59313   0.00000  Uiso   1.00
C4     C     0.99417   0.82040   0.53886   0.00000  Uiso   1.00
C5     C     0.90670   0.75580   0.42526   0.00000  Uiso   1.00
C6     C     0.40455   0.90395   0.86167   0.00000  Uiso   1.00
C7     C     0.36817   0.90166   0.93090   0.00000  Uiso   1.00
C8     C     0.54323   0.88167   0.03110   0.00000  Uiso   1.00
C9     C     0.77356   0.85255   0.20241   0.00000  Uiso   1.00
C10    C     0.36167   0.96653   0.74307   0.00000  Uiso   1.00
C11    C     0.28928   0.01687   0.71261   0.00000  Uiso   1.00
C12    C     0.42826   0.04958   0.71298   0.00000  Uiso   1.00
C13    C     0.59201   0.11764   0.70015   0.00000  Uiso   1.00
C14    C     0.61181   0.89296   0.80330   0.00000  Uiso   1.00
C15    C     0.40389   0.86405   0.70798   0.00000  Uiso   1.00
C16    C     0.40695   0.82485   0.65383   0.00000  Uiso   1.00
C17    C     0.19853   0.80330   0.56871   0.00000  Uiso   1.00
C18    C     0.60854   0.88688   0.89147   0.00000  Uiso   1.00
C19    C     0.78369   0.86689   0.99160   0.00000  Uiso   1.00
C20    C     0.74759   0.86457   0.06096   0.00000  Uiso   1.00
C21    C     0.56566   0.94947   0.77287   0.00000  Uiso   1.00
C22    C     0.70479   0.98210   0.77330   0.00000  Uiso   1.00
C23    C     0.63262   0.03248   0.74284   0.00000  Uiso   1.00
H24    H     0.07743   0.93767   0.72524   0.00000  Uiso   1.00
H25    H     0.83360   0.87284   0.57010   0.00000  Uiso   1.00
H26    H     0.21030   0.91488   0.90782   0.00000  Uiso   1.00
H27    H     0.13141   0.03007   0.68955   0.00000  Uiso   1.00
H28    H     0.65323   0.79342   0.41125   0.00000  Uiso   1.00
H29    H     0.44756   0.88208   0.12337   0.00000  Uiso   1.00
H30    H     0.28120   0.12498   0.66312   0.00000  Uiso   1.00
H31    H     0.77064   0.87967   0.82651   0.00000  Uiso   1.00
H32    H     0.56484   0.81165   0.67691   0.00000  Uiso   1.00
H33    H     0.94154   0.85369   0.01463   0.00000  Uiso   1.00
H34    H     0.86264   0.96888   0.79637   0.00000  Uiso   1.00
H35    H     0.24674   0.74376   0.49795   0.00000  Uiso   1.00
H36    H     0.04106   0.83242   0.21007   0.00000  Uiso   1.00
H37    H     0.87470   0.07532   0.74982   0.00000  Uiso   1.00
O38    O     0.80210   0.72488   0.35438   0.00000  Uiso   1.00
O39    O     0.84424   0.84121   0.28866   0.00000  Uiso   1.00
O40    O     0.62597   0.15989   0.68482   0.00000  Uiso   1.00
N41    N     0.82115   0.79107   0.45217   0.00000  Uiso   1.00
N42    N     0.56378   0.87395   0.11795   0.00000  Uiso   1.00
N43    N     0.40828   0.10105   0.68769   0.00000  Uiso   1.00
N44    N     0.14051   0.76435   0.49882   0.00000  Uiso   1.00
N45    N     0.88314   0.84723   0.16460   0.00000  Uiso   1.00
N46    N     0.72764   0.07433   0.73434   0.00000  Uiso   1.00
C47    C     0.76376   0.42438   0.75156   0.00000  Uiso   1.00
C48    C     0.80012   0.38112   0.82182   0.00000  Uiso   1.00
C49    C     0.00857   0.35962   0.90687   0.00000  Uiso   1.00
C50    C     0.00583   0.32040   0.96114   0.00000  Uiso   1.00
C51    C     0.09330   0.25580   0.07474   0.00000  Uiso   1.00
C52    C     0.59545   0.40395   0.63833   0.00000  Uiso   1.00
C53    C     0.63183   0.40166   0.56910   0.00000  Uiso   1.00
C54    C     0.45677   0.38167   0.46890   0.00000  Uiso   1.00
C55    C     0.22644   0.35255   0.29759   0.00000  Uiso   1.00
C56    C     0.63833   0.46653   0.75693   0.00000  Uiso   1.00
C57    C     0.71072   0.51687   0.78739   0.00000  Uiso   1.00
C58    C     0.57174   0.54958   0.78702   0.00000  Uiso   1.00
C59    C     0.40799   0.61764   0.79985   0.00000  Uiso   1.00
C60    C     0.38819   0.39296   0.69670   0.00000  Uiso   1.00
C61    C     0.59611   0.36405   0.79202   0.00000  Uiso   1.00
C62    C     0.59305   0.32485   0.84617   0.00000  Uiso   1.00
C63    C     0.80147   0.30330   0.93129   0.00000  Uiso   1.00
C64    C     0.39146   0.38688   0.60853   0.00000  Uiso   1.00
C65    C     0.21631   0.36689   0.50840   0.00000  Uiso   1.00
C66    C     0.25241   0.36457   0.43904   0.00000  Uiso   1.00
C67    C     0.43434   0.44947   0.72713   0.00000  Uiso   1.00
C68    C     0.29521   0.48210   0.72670   0.00000  Uiso   1.00
C69    C     0.36738   0.53248   0.75716   0.00000  Uiso   1.00
H70    H     0.92257   0.43767   0.77476   0.00000  Uiso   1.00
H71    H     0.16640   0.37284   0.92990   0.00000  Uiso   1.00
H72    H     0.78970   0.41488   0.59218   0.00000  Uiso   1.00
H73    H     0.86859   0.53007   0.81045   0.00000  Uiso   1.00
H74    H     0.34677   0.29342   0.08875   0.00000  Uiso   1.00
H75    H     0.55244   0.38208   0.37663   0.00000  Uiso   1.00
H76    H     0.71880   0.62498   0.83688   0.00000  Uiso   1.00
H77    H     0.22936   0.37967   0.67349   0.00000  Uiso   1.00
H78    H     0.43516   0.31165   0.82309   0.00000  Uiso   1.00
H79    H     0.05846   0.35369   0.48537   0.00000  Uiso   1.00
H80    H     0.13736   0.46888   0.70363   0.00000  Uiso   1.00
H81    H     0.75326   0.24376   0.00205   0.00000  Uiso   1.00
H82    H     0.95894   0.33242   0.28993   0.00000  Uiso   1.00
H83    H     0.12530   0.57532   0.75018   0.00000  Uiso   1.00
O84    O     0.19790   0.22488   0.14562   0.00000  Uiso   1.00
O85    O     0.15576   0.34121   0.21134   0.00000  Uiso   1.00
O86    O     0.37403   0.65989   0.81518   0.00000  Uiso   1.00
N87    N     0.17885   0.29107   0.04783   0.00000  Uiso   1.00
N88    N     0.43622   0.37395   0.38205   0.00000  Uiso   1.00
N89    N     0.59172   0.60105   0.81231   0.00000  Uiso   1.00
N90    N     0.85949   0.26435   0.00118   0.00000  Uiso   1.00
N91    N     0.11686   0.34723   0.33540   0.00000  Uiso   1.00
N92    N     0.27236   0.57433   0.76566   0.00000  Uiso   1.00
C93    C     0.76376   0.07562   0.25156   0.00000  Uiso   1.00
C94    C     0.80012   0.11888   0.32182   0.00000  Uiso   1.00
C95    C     0.00857   0.14038   0.40687   0.00000  Uiso   1.00
C96    C     0.00583   0.17960   0.46114   0.00000  Uiso   1.00
C97    C     0.09330   0.24420   0.57474   0.00000  Uiso   1.00
C98    C     0.59545   0.09605   0.13833   0.00000  Uiso   1.00
C99    C     0.63183   0.09834   0.06910   0.00000  Uiso   1.00
C100   C     0.45677   0.11833   0.96890   0.00000  Uiso   1.00
C101   C     0.22644   0.14745   0.79759   0.00000  Uiso   1.00
C102   C     0.63833   0.03347   0.25693   0.00000  Uiso   1.00
C103   C     0.71072   0.98313   0.28739   0.00000  Uiso   1.00
C104   C     0.57174   0.95042   0.28702   0.00000  Uiso   1.00
C105   C     0.40799   0.88236   0.29985   0.00000  Uiso   1.00
C106   C     0.38819   0.10704   0.19670   0.00000  Uiso   1.00
C107   C     0.59611   0.13595   0.29202   0.00000  Uiso   1.00
C108   C     0.59305   0.17515   0.34617   0.00000  Uiso   1.00
C109   C     0.80147   0.19670   0.43129   0.00000  Uiso   1.00
C110   C     0.39146   0.11312   0.10853   0.00000  Uiso   1.00
C111   C     0.21631   0.13311   0.00840   0.00000  Uiso   1.00
C112   C     0.25241   0.13543   0.93904   0.00000  Uiso   1.00
C113   C     0.43434   0.05053   0.22713   0.00000  Uiso   1.00
C114   C     0.29521   0.01790   0.22670   0.00000  Uiso   1.00
C115   C     0.36738   0.96752   0.25716   0.00000  Uiso   1.00
H116   H     0.92257   0.06233   0.27476   0.00000  Uiso   1.00
H117   H     0.16640   0.12716   0.42990   0.00000  Uiso   1.00
H118   H     0.78970   0.08512   0.09218   0.00000  Uiso   1.00
H119   H     0.86859   0.96993   0.31045   0.00000  Uiso   1.00
H120   H     0.34677   0.20658   0.58875   0.00000  Uiso   1.00
H121   H     0.55244   0.11792   0.87663   0.00000  Uiso   1.00
H122   H     0.71880   0.87502   0.33688   0.00000  Uiso   1.00
H123   H     0.22936   0.12033   0.17349   0.00000  Uiso   1.00
H124   H     0.43516   0.18835   0.32309   0.00000  Uiso   1.00
H125   H     0.05846   0.14631   0.98537   0.00000  Uiso   1.00
H126   H     0.13736   0.03112   0.20363   0.00000  Uiso   1.00
H127   H     0.75326   0.25624   0.50205   0.00000  Uiso   1.00
H128   H     0.95894   0.16758   0.78993   0.00000  Uiso   1.00
H129   H     0.12530   0.92468   0.25018   0.00000  Uiso   1.00
O130   O     0.19790   0.27512   0.64562   0.00000  Uiso   1.00
O131   O     0.15576   0.15879   0.71134   0.00000  Uiso   1.00
O132   O     0.37403   0.84011   0.31518   0.00000  Uiso   1.00
N133   N     0.17885   0.20893   0.54783   0.00000  Uiso   1.00
N134   N     0.43622   0.12605   0.88205   0.00000  Uiso   1.00
N135   N     0.59172   0.89895   0.31231   0.00000  Uiso   1.00
N136   N     0.85949   0.23565   0.50118   0.00000  Uiso   1.00
N137   N     0.11686   0.15277   0.83540   0.00000  Uiso   1.00
N138   N     0.27236   0.92567   0.26566   0.00000  Uiso   1.00
C139   C     0.23624   0.57562   0.24844   0.00000  Uiso   1.00
C140   C     0.19988   0.61888   0.17818   0.00000  Uiso   1.00
C141   C     0.99143   0.64038   0.09313   0.00000  Uiso   1.00
C142   C     0.99417   0.67960   0.03886   0.00000  Uiso   1.00
C143   C     0.90670   0.74420   0.92526   0.00000  Uiso   1.00
C144   C     0.40455   0.59605   0.36167   0.00000  Uiso   1.00
C145   C     0.36817   0.59834   0.43090   0.00000  Uiso   1.00
C146   C     0.54323   0.61833   0.53110   0.00000  Uiso   1.00
C147   C     0.77356   0.64745   0.70241   0.00000  Uiso   1.00
C148   C     0.36167   0.53347   0.24307   0.00000  Uiso   1.00
C149   C     0.28928   0.48313   0.21261   0.00000  Uiso   1.00
C150   C     0.42826   0.45042   0.21298   0.00000  Uiso   1.00
C151   C     0.59201   0.38236   0.20015   0.00000  Uiso   1.00
C152   C     0.61181   0.60704   0.30330   0.00000  Uiso   1.00
C153   C     0.40389   0.63595   0.20798   0.00000  Uiso   1.00
C154   C     0.40695   0.67515   0.15383   0.00000  Uiso   1.00
C155   C     0.19853   0.69670   0.06871   0.00000  Uiso   1.00
C156   C     0.60854   0.61312   0.39147   0.00000  Uiso   1.00
C157   C     0.78369   0.63311   0.49160   0.00000  Uiso   1.00
C158   C     0.74759   0.63543   0.56096   0.00000  Uiso   1.00
C159   C     0.56566   0.55053   0.27287   0.00000  Uiso   1.00
C160   C     0.70479   0.51790   0.27330   0.00000  Uiso   1.00
C161   C     0.63262   0.46752   0.24284   0.00000  Uiso   1.00
H162   H     0.07743   0.56233   0.22524   0.00000  Uiso   1.00
H163   H     0.83360   0.62716   0.07010   0.00000  Uiso   1.00
H164   H     0.21030   0.58512   0.40782   0.00000  Uiso   1.00
H165   H     0.13141   0.46993   0.18955   0.00000  Uiso   1.00
H166   H     0.65323   0.70658   0.91125   0.00000  Uiso   1.00
H167   H     0.44756   0.61792   0.62337   0.00000  Uiso   1.00
H168   H     0.28120   0.37502   0.16312   0.00000  Uiso   1.00
H169   H     0.77064   0.62033   0.32651   0.00000  Uiso   1.00
H170   H     0.56484   0.68835   0.17691   0.00000  Uiso   1.00
H171   H     0.94154   0.64631   0.51463   0.00000  Uiso   1.00
H172   H     0.86264   0.53112   0.29637   0.00000  Uiso   1.00
H173   H     0.24674   0.75624   0.99795   0.00000  Uiso   1.00
H174   H     0.04106   0.66758   0.71007   0.00000  Uiso   1.00
H175   H     0.87470   0.42468   0.24982   0.00000  Uiso   1.00
O176   O     0.80210   0.77512   0.85438   0.00000  Uiso   1.00
O177   O     0.84424   0.65879   0.78866   0.00000  Uiso   1.00
O178   O     0.62597   0.34011   0.18482   0.00000  Uiso   1.00
N179   N     0.82115   0.70893   0.95217   0.00000  Uiso   1.00
N180   N     0.56378   0.62605   0.61795   0.00000  Uiso   1.00
N181   N     0.40828   0.39895   0.18769   0.00000  Uiso   1.00
N182   N     0.14051   0.73565   0.99882   0.00000  Uiso   1.00
N183   N     0.88314   0.65277   0.66460   0.00000  Uiso   1.00
N184   N     0.72764   0.42567   0.23434   0.00000  Uiso   1.00
