data_job_06750
_audit_creation_date              2018-12-19
_audit_creation_method            'Materials Studio'
_symmetry_space_group_name_H-M    'P1'
_symmetry_Int_Tables_number       1
_symmetry_cell_setting            triclinic
loop_
_symmetry_equiv_pos_as_xyz
  x,y,z
_cell_length_a                    22.0351
_cell_length_b                    19.7699
_cell_length_c                    23.1838
_cell_angle_alpha                 100.3720
_cell_angle_beta                  104.3630
_cell_angle_gamma                 97.9005
loop_
_atom_site_label
_atom_site_type_symbol
_atom_site_fract_x
_atom_site_fract_y
_atom_site_fract_z
_atom_site_U_iso_or_equiv
_atom_site_adp_type
_atom_site_occupancy
C1     C     0.85225   0.00954   0.55563   0.00000  Uiso   1.00
C2     C     0.84740   0.05995   0.51276   0.00000  Uiso   1.00
C3     C     0.82886   0.04096   0.44943   0.00000  Uiso   1.00
C4     C     0.82750   0.09491   0.41846   0.00000  Uiso   1.00
C5     C     0.81749   0.16248   0.34714   0.00000  Uiso   1.00
C6     C     0.92052   0.02890   0.59708   0.00000  Uiso   1.00
C7     C     0.96345   0.98380   0.60464   0.00000  Uiso   1.00
C8     C     0.02364   0.01160   0.64466   0.00000  Uiso   1.00
C9     C     0.12713   0.03095   0.70428   0.00000  Uiso   1.00
C10    C     0.80978   0.02856   0.59654   0.00000  Uiso   1.00
C11    C     0.75960   0.98317   0.60365   0.00000  Uiso   1.00
C12    C     0.72657   0.01068   0.64322   0.00000  Uiso   1.00
C13    C     0.65810   0.02950   0.70199   0.00000  Uiso   1.00
C14    C     0.88283   0.13911   0.61327   0.00000  Uiso   1.00
C15    C     0.86402   0.13033   0.54407   0.00000  Uiso   1.00
C16    C     0.86269   0.18432   0.51320   0.00000  Uiso   1.00
C17    C     0.84414   0.16541   0.44982   0.00000  Uiso   1.00
C18    C     0.93713   0.09927   0.62839   0.00000  Uiso   1.00
C19    C     0.99728   0.12715   0.66841   0.00000  Uiso   1.00
C20    C     0.04028   0.08211   0.67602   0.00000  Uiso   1.00
C21    C     0.82639   0.09893   0.62784   0.00000  Uiso   1.00
C22    C     0.79343   0.12652   0.66742   0.00000  Uiso   1.00
C23    C     0.74321   0.08119   0.67459   0.00000  Uiso   1.00
H24    H     0.83932   0.95474   0.53126   0.00000  Uiso   1.00
H25    H     0.81601   0.98649   0.42521   0.00000  Uiso   1.00
H26    H     0.95058   0.92933   0.58041   0.00000  Uiso   1.00
H27    H     0.74676   0.92871   0.57941   0.00000  Uiso   1.00
H28    H     0.79752   0.05273   0.32145   0.00000  Uiso   1.00
H29    H     0.08125   0.93220   0.64870   0.00000  Uiso   1.00
H30    H     0.65146   0.93088   0.64661   0.00000  Uiso   1.00
H31    H     0.89576   0.19390   0.63764   0.00000  Uiso   1.00
H32    H     0.87555   0.23877   0.53744   0.00000  Uiso   1.00
H33    H     0.01012   0.18161   0.69263   0.00000  Uiso   1.00
H34    H     0.80630   0.18099   0.69164   0.00000  Uiso   1.00
H35    H     0.84584   0.25749   0.41254   0.00000  Uiso   1.00
H36    H     0.12957   0.13696   0.73979   0.00000  Uiso   1.00
H37    H     0.69978   0.13564   0.73770   0.00000  Uiso   1.00
O38    O     0.80738   0.18031   0.29916   0.00000  Uiso   1.00
O39    O     0.17962   0.02218   0.72851   0.00000  Uiso   1.00
O40    O     0.61575   0.02045   0.72576   0.00000  Uiso   1.00
N41    N     0.81165   0.09476   0.35664   0.00000  Uiso   1.00
N42    N     0.07693   0.98208   0.66260   0.00000  Uiso   1.00
N43    N     0.67512   0.98084   0.66065   0.00000  Uiso   1.00
N44    N     0.83765   0.20494   0.40565   0.00000  Uiso   1.00
N45    N     0.10293   0.09226   0.71161   0.00000  Uiso   1.00
N46    N     0.70112   0.09102   0.70966   0.00000  Uiso   1.00
C47    C     0.56817   0.84723   0.04287   0.00000  Uiso   1.00
C48    C     0.52093   0.85235   0.08093   0.00000  Uiso   1.00
C49    C     0.45518   0.83085   0.05890   0.00000  Uiso   1.00
C50    C     0.42028   0.84001   0.10107   0.00000  Uiso   1.00
C51    C     0.34238   0.84349   0.15075   0.00000  Uiso   1.00
C52    C     0.60566   0.92139   0.05381   0.00000  Uiso   1.00
C53    C     0.61117   0.95793   0.00897   0.00000  Uiso   1.00
C54    C     0.64761   0.02521   0.02832   0.00000  Uiso   1.00
C55    C     0.70130   0.13585   0.03588   0.00000  Uiso   1.00
C56    C     0.61558   0.80529   0.07203   0.00000  Uiso   1.00
C57    C     0.62944   0.74424   0.04251   0.00000  Uiso   1.00
C58    C     0.67424   0.71378   0.07720   0.00000  Uiso   1.00
C59    C     0.74333   0.64417   0.11305   0.00000  Uiso   1.00
C60    C     0.62312   0.90171   0.15694   0.00000  Uiso   1.00
C61    C     0.55077   0.88194   0.14289   0.00000  Uiso   1.00
C62    C     0.51597   0.89113   0.18511   0.00000  Uiso   1.00
C63    C     0.45018   0.86966   0.16315   0.00000  Uiso   1.00
C64    C     0.63551   0.95098   0.11577   0.00000  Uiso   1.00
C65    C     0.67195   0.01821   0.13519   0.00000  Uiso   1.00
C66    C     0.67751   0.05486   0.09039   0.00000  Uiso   1.00
C67    C     0.64543   0.83488   0.13399   0.00000  Uiso   1.00
C68    C     0.69022   0.80452   0.16873   0.00000  Uiso   1.00
C69    C     0.70414   0.74343   0.13927   0.00000  Uiso   1.00
H70    H     0.54494   0.82419   0.99463   0.00000  Uiso   1.00
H71    H     0.43210   0.80796   0.01094   0.00000  Uiso   1.00
H72    H     0.58807   0.93502   0.96103   0.00000  Uiso   1.00
H73    H     0.60634   0.72135   0.99457   0.00000  Uiso   1.00
H74    H     0.32016   0.80304   0.05636   0.00000  Uiso   1.00
H75    H     0.64904   0.07093   0.95110   0.00000  Uiso   1.00
H76    H     0.68756   0.62038   0.02182   0.00000  Uiso   1.00
H77    H     0.64635   0.92475   0.20518   0.00000  Uiso   1.00
H78    H     0.53908   0.91404   0.23306   0.00000  Uiso   1.00
H79    H     0.69504   0.04110   0.18314   0.00000  Uiso   1.00
H80    H     0.71331   0.82743   0.21668   0.00000  Uiso   1.00
H81    H     0.40698   0.88914   0.23663   0.00000  Uiso   1.00
H82    H     0.73587   0.15703   0.13138   0.00000  Uiso   1.00
H83    H     0.77438   0.70648   0.20210   0.00000  Uiso   1.00
O84    O     0.29117   0.83725   0.16103   0.00000  Uiso   1.00
O85    O     0.72266   0.18871   0.02294   0.00000  Uiso   1.00
O86    O     0.77319   0.59760   0.11572   0.00000  Uiso   1.00
N87    N     0.35531   0.82476   0.09496   0.00000  Uiso   1.00
N88    N     0.66279   0.07523   0.99656   0.00000  Uiso   1.00
N89    N     0.69882   0.65401   0.06267   0.00000  Uiso   1.00
N90    N     0.40203   0.87109   0.19197   0.00000  Uiso   1.00
N91    N     0.70951   0.12156   0.09356   0.00000  Uiso   1.00
N92    N     0.74553   0.70034   0.15967   0.00000  Uiso   1.00
C93    C     0.00153   0.63970   0.89031   0.00000  Uiso   1.00
C94    C     0.02511   0.57094   0.87828   0.00000  Uiso   1.00
C95    C     0.98767   0.50436   0.86273   0.00000  Uiso   1.00
C96    C     0.01827   0.44812   0.85364   0.00000  Uiso   1.00
C97    C     0.04490   0.33982   0.83405   0.00000  Uiso   1.00
C98    C     0.04138   0.67935   0.95417   0.00000  Uiso   1.00
C99    C     0.01762   0.70394   0.00241   0.00000  Uiso   1.00
C100   C     0.06191   0.73896   0.05719   0.00000  Uiso   1.00
C101   C     0.11381   0.79903   0.15540   0.00000  Uiso   1.00
C102   C     0.02095   0.68148   0.84637   0.00000  Uiso   1.00
C103   C     0.98001   0.70788   0.80398   0.00000  Uiso   1.00
C104   C     0.00710   0.74471   0.76802   0.00000  Uiso   1.00
C105   C     0.02727   0.80808   0.69885   0.00000  Uiso   1.00
C106   C     0.12244   0.65819   0.90182   0.00000  Uiso   1.00
C107   C     0.09079   0.58098   0.88454   0.00000  Uiso   1.00
C108   C     0.12145   0.52482   0.87547   0.00000  Uiso   1.00
C109   C     0.08406   0.45818   0.85990   0.00000  Uiso   1.00
C110   C     0.10706   0.68939   0.96042   0.00000  Uiso   1.00
C111   C     0.15139   0.72440   0.01515   0.00000  Uiso   1.00
C112   C     0.12771   0.74903   0.06346   0.00000  Uiso   1.00
C113   C     0.08663   0.69152   0.85262   0.00000  Uiso   1.00
C114   C     0.11379   0.72833   0.81672   0.00000  Uiso   1.00
C115   C     0.07290   0.75477   0.77429   0.00000  Uiso   1.00
H116   H     0.95040   0.63188   0.88544   0.00000  Uiso   1.00
H117   H     0.93685   0.49661   0.85790   0.00000  Uiso   1.00
H118   H     0.96680   0.69617   0.99755   0.00000  Uiso   1.00
H119   H     0.92919   0.70010   0.79916   0.00000  Uiso   1.00
H120   H     0.95079   0.35107   0.83014   0.00000  Uiso   1.00
H121   H     0.01393   0.77186   0.12460   0.00000  Uiso   1.00
H122   H     0.93464   0.78015   0.70625   0.00000  Uiso   1.00
H123   H     0.17357   0.66601   0.90669   0.00000  Uiso   1.00
H124   H     0.17227   0.53261   0.88031   0.00000  Uiso   1.00
H125   H     0.20221   0.73216   0.01997   0.00000  Uiso   1.00
H126   H     0.16461   0.73609   0.82157   0.00000  Uiso   1.00
H127   H     0.14187   0.38029   0.84834   0.00000  Uiso   1.00
H128   H     0.20501   0.80107   0.14280   0.00000  Uiso   1.00
H129   H     0.12572   0.80936   0.72444   0.00000  Uiso   1.00
O130   O     0.04145   0.27731   0.82153   0.00000  Uiso   1.00
O131   O     0.12428   0.82937   0.20784   0.00000  Uiso   1.00
O132   O     0.02025   0.84025   0.65897   0.00000  Uiso   1.00
N133   N     0.99594   0.37625   0.83803   0.00000  Uiso   1.00
N134   N     0.05497   0.76965   0.11334   0.00000  Uiso   1.00
N135   N     0.98084   0.77742   0.72222   0.00000  Uiso   1.00
N136   N     0.09876   0.39197   0.84782   0.00000  Uiso   1.00
N137   N     0.15779   0.78537   0.12313   0.00000  Uiso   1.00
N138   N     0.08366   0.79314   0.73201   0.00000  Uiso   1.00
C139   C     0.37379   0.10593   0.52607   0.00000  Uiso   1.00
C140   C     0.36056   0.04100   0.55126   0.00000  Uiso   1.00
C141   C     0.33636   0.97322   0.51675   0.00000  Uiso   1.00
C142   C     0.32767   0.92103   0.54839   0.00000  Uiso   1.00
C143   C     0.30487   0.81790   0.57779   0.00000  Uiso   1.00
C144   C     0.44394   0.13855   0.55666   0.00000  Uiso   1.00
C145   C     0.48985   0.15279   0.52669   0.00000  Uiso   1.00
C146   C     0.55136   0.18272   0.56289   0.00000  Uiso   1.00
C147   C     0.65800   0.23108   0.60068   0.00000  Uiso   1.00
C148   C     0.33581   0.15732   0.55086   0.00000  Uiso   1.00
C149   C     0.29081   0.18737   0.51602   0.00000  Uiso   1.00
C150   C     0.26129   0.23313   0.54733   0.00000  Uiso   1.00
C151   C     0.20004   0.31064   0.57611   0.00000  Uiso   1.00
C152   C     0.40140   0.13377   0.64364   0.00000  Uiso   1.00
C153   C     0.37555   0.05612   0.61512   0.00000  Uiso   1.00
C154   C     0.36690   0.00401   0.64682   0.00000  Uiso   1.00
C155   C     0.34269   0.93617   0.61236   0.00000  Uiso   1.00
C156   C     0.45894   0.15366   0.62052   0.00000  Uiso   1.00
C157   C     0.52039   0.18358   0.65677   0.00000  Uiso   1.00
C158   C     0.56638   0.19787   0.62687   0.00000  Uiso   1.00
C159   C     0.35080   0.17244   0.61472   0.00000  Uiso   1.00
C160   C     0.32135   0.21816   0.64610   0.00000  Uiso   1.00
C161   C     0.27632   0.24827   0.61131   0.00000  Uiso   1.00
H162   H     0.36212   0.09417   0.47636   0.00000  Uiso   1.00
H163   H     0.32476   0.96154   0.46733   0.00000  Uiso   1.00
H164   H     0.47823   0.14109   0.47728   0.00000  Uiso   1.00
H165   H     0.27922   0.17566   0.46660   0.00000  Uiso   1.00
H166   H     0.28998   0.82117   0.48548   0.00000  Uiso   1.00
H167   H     0.61356   0.19978   0.50646   0.00000  Uiso   1.00
H168   H     0.19392   0.27268   0.48395   0.00000  Uiso   1.00
H169   H     0.41308   0.14554   0.69336   0.00000  Uiso   1.00
H170   H     0.37851   0.01573   0.69624   0.00000  Uiso   1.00
H171   H     0.53198   0.19528   0.70619   0.00000  Uiso   1.00
H172   H     0.33297   0.22985   0.69551   0.00000  Uiso   1.00
H173   H     0.33360   0.86515   0.67128   0.00000  Uiso   1.00
H174   H     0.65719   0.24376   0.69225   0.00000  Uiso   1.00
H175   H     0.23754   0.31666   0.66974   0.00000  Uiso   1.00
O176   O     0.28815   0.75684   0.57636   0.00000  Uiso   1.00
O177   O     0.71268   0.25357   0.60388   0.00000  Uiso   1.00
O178   O     0.16211   0.34921   0.57434   0.00000  Uiso   1.00
N179   N     0.30498   0.84934   0.52881   0.00000  Uiso   1.00
N180   N     0.60751   0.20330   0.54842   0.00000  Uiso   1.00
N181   N     0.21519   0.27148   0.52738   0.00000  Uiso   1.00
N182   N     0.32845   0.87300   0.62879   0.00000  Uiso   1.00
N183   N     0.63099   0.22697   0.64840   0.00000  Uiso   1.00
N184   N     0.23866   0.29514   0.62735   0.00000  Uiso   1.00
C185   C     0.07082   0.49127   0.35302   0.00000  Uiso   1.00
C186   C     0.02294   0.53916   0.33946   0.00000  Uiso   1.00
C187   C     0.95724   0.51779   0.31657   0.00000  Uiso   1.00
C188   C     0.92171   0.56966   0.30732   0.00000  Uiso   1.00
C189   C     0.84292   0.63328   0.28430   0.00000  Uiso   1.00
C190   C     0.10839   0.51860   0.41999   0.00000  Uiso   1.00
C191   C     0.11454   0.47994   0.46479   0.00000  Uiso   1.00
C192   C     0.15095   0.51451   0.52334   0.00000  Uiso   1.00
C193   C     0.20486   0.54619   0.62532   0.00000  Uiso   1.00
C194   C     0.11793   0.50523   0.31626   0.00000  Uiso   1.00
C195   C     0.13213   0.45531   0.27385   0.00000  Uiso   1.00
C196   C     0.17658   0.47862   0.24506   0.00000  Uiso   1.00
C197   C     0.24531   0.48953   0.18599   0.00000  Uiso   1.00
C198   C     0.12454   0.62140   0.37732   0.00000  Uiso   1.00
C199   C     0.05212   0.60984   0.35267   0.00000  Uiso   1.00
C200   C     0.01667   0.66177   0.34345   0.00000  Uiso   1.00
C201   C     0.95093   0.64047   0.32055   0.00000  Uiso   1.00
C202   C     0.13757   0.58928   0.43319   0.00000  Uiso   1.00
C203   C     0.17397   0.62392   0.49168   0.00000  Uiso   1.00
C204   C     0.18018   0.58532   0.53656   0.00000  Uiso   1.00
C205   C     0.14711   0.57591   0.32945   0.00000  Uiso   1.00
C206   C     0.19155   0.59930   0.30073   0.00000  Uiso   1.00
C207   C     0.20581   0.54943   0.25829   0.00000  Uiso   1.00
H208   H     0.04811   0.43624   0.34274   0.00000  Uiso   1.00
H209   H     0.93468   0.46308   0.30636   0.00000  Uiso   1.00
H210   H     0.09196   0.42524   0.45456   0.00000  Uiso   1.00
H211   H     0.10954   0.40062   0.26365   0.00000  Uiso   1.00
H212   H     0.82179   0.52401   0.27187   0.00000  Uiso   1.00
H213   H     0.15345   0.44421   0.58435   0.00000  Uiso   1.00
H214   H     0.19051   0.39230   0.18177   0.00000  Uiso   1.00
H215   H     0.14725   0.67644   0.38760   0.00000  Uiso   1.00
H216   H     0.03926   0.71646   0.35367   0.00000  Uiso   1.00
H217   H     0.19655   0.67862   0.50188   0.00000  Uiso   1.00
H218   H     0.21412   0.65400   0.31096   0.00000  Uiso   1.00
H219   H     0.90668   0.72967   0.31027   0.00000  Uiso   1.00
H220   H     0.23834   0.64986   0.62276   0.00000  Uiso   1.00
H221   H     0.27540   0.59796   0.22017   0.00000  Uiso   1.00
O222   O     0.79141   0.64884   0.26797   0.00000  Uiso   1.00
O223   O     0.22654   0.54413   0.67793   0.00000  Uiso   1.00
O224   O     0.27516   0.47603   0.14975   0.00000  Uiso   1.00
N225   N     0.85659   0.56692   0.28555   0.00000  Uiso   1.00
N226   N     0.16666   0.49231   0.57771   0.00000  Uiso   1.00
N227   N     0.20133   0.44378   0.20134   0.00000  Uiso   1.00
N228   N     0.90227   0.67758   0.30621   0.00000  Uiso   1.00
N229   N     0.21234   0.60297   0.59837   0.00000  Uiso   1.00
N230   N     0.24700   0.55444   0.22200   0.00000  Uiso   1.00
C231   C     0.55574   0.35318   0.05922   0.00000  Uiso   1.00
C232   C     0.59416   0.35621   0.01304   0.00000  Uiso   1.00
C233   C     0.57022   0.33258   0.95018   0.00000  Uiso   1.00
C234   C     0.61311   0.34005   0.91581   0.00000  Uiso   1.00
C235   C     0.66295   0.34021   0.83991   0.00000  Uiso   1.00
C236   C     0.56551   0.42824   0.09536   0.00000  Uiso   1.00
C237   C     0.51748   0.46517   0.10173   0.00000  Uiso   1.00
C238   C     0.53625   0.53327   0.13666   0.00000  Uiso   1.00
C239   C     0.54161   0.64525   0.18861   0.00000  Uiso   1.00
C240   C     0.58892   0.31298   0.10402   0.00000  Uiso   1.00
C241   C     0.56056   0.25301   0.11768   0.00000  Uiso   1.00
C242   C     0.59904   0.22408   0.15992   0.00000  Uiso   1.00
C243   C     0.64074   0.15710   0.22531   0.00000  Uiso   1.00
C244   C     0.67448   0.40845   0.10995   0.00000  Uiso   1.00
C245   C     0.65866   0.38623   0.04060   0.00000  Uiso   1.00
C246   C     0.70159   0.39373   0.00631   0.00000  Uiso   1.00
C247   C     0.67772   0.37012   0.94341   0.00000  Uiso   1.00
C248   C     0.63000   0.45826   0.12292   0.00000  Uiso   1.00
C249   C     0.64885   0.52632   0.15786   0.00000  Uiso   1.00
C250   C     0.60086   0.56335   0.16427   0.00000  Uiso   1.00
C251   C     0.65341   0.34300   0.13158   0.00000  Uiso   1.00
C252   C     0.69194   0.31416   0.17381   0.00000  Uiso   1.00
C253   C     0.66365   0.25416   0.18753   0.00000  Uiso   1.00
H254   H     0.50553   0.32981   0.03777   0.00000  Uiso   1.00
H255   H     0.52031   0.30936   0.92887   0.00000  Uiso   1.00
H256   H     0.46757   0.44192   0.08040   0.00000  Uiso   1.00
H257   H     0.51065   0.22979   0.09635   0.00000  Uiso   1.00
H258   H     0.56513   0.29994   0.82030   0.00000  Uiso   1.00
H259   H     0.45394   0.57946   0.13981   0.00000  Uiso   1.00
H260   H     0.54478   0.13214   0.17345   0.00000  Uiso   1.00
H261   H     0.72469   0.43183   0.13141   0.00000  Uiso   1.00
H262   H     0.75150   0.41697   0.02765   0.00000  Uiso   1.00
H263   H     0.69876   0.54954   0.17918   0.00000  Uiso   1.00
H264   H     0.74185   0.33741   0.19512   0.00000  Uiso   1.00
H265   H     0.75277   0.38729   0.90046   0.00000  Uiso   1.00
H266   H     0.64158   0.66680   0.21999   0.00000  Uiso   1.00
H267   H     0.73242   0.21948   0.25361   0.00000  Uiso   1.00
O268   O     0.67263   0.33202   0.79043   0.00000  Uiso   1.00
O269   O     0.52674   0.69872   0.20964   0.00000  Uiso   1.00
O270   O     0.64593   0.11186   0.25376   0.00000  Uiso   1.00
N271   N     0.60562   0.32252   0.85340   0.00000  Uiso   1.00
N272   N     0.50166   0.58386   0.15213   0.00000  Uiso   1.00
N273   N     0.58658   0.16566   0.18358   0.00000  Uiso   1.00
N274   N     0.70659   0.36952   0.89654   0.00000  Uiso   1.00
N275   N     0.60263   0.63086   0.19526   0.00000  Uiso   1.00
N276   N     0.68755   0.21266   0.22672   0.00000  Uiso   1.00
C277   C     0.14775   0.99046   0.44437   0.00000  Uiso   1.00
C278   C     0.15260   0.94005   0.48724   0.00000  Uiso   1.00
C279   C     0.17114   0.95904   0.55057   0.00000  Uiso   1.00
C280   C     0.17250   0.90509   0.58154   0.00000  Uiso   1.00
C281   C     0.18251   0.83752   0.65286   0.00000  Uiso   1.00
C282   C     0.07948   0.97110   0.40292   0.00000  Uiso   1.00
C283   C     0.03655   0.01620   0.39536   0.00000  Uiso   1.00
C284   C     0.97636   0.98840   0.35534   0.00000  Uiso   1.00
C285   C     0.87287   0.96905   0.29572   0.00000  Uiso   1.00
C286   C     0.19022   0.97144   0.40346   0.00000  Uiso   1.00
C287   C     0.24040   0.01683   0.39635   0.00000  Uiso   1.00
C288   C     0.27343   0.98932   0.35678   0.00000  Uiso   1.00
C289   C     0.34190   0.97050   0.29801   0.00000  Uiso   1.00
C290   C     0.11717   0.86089   0.38673   0.00000  Uiso   1.00
C291   C     0.13598   0.86967   0.45593   0.00000  Uiso   1.00
C292   C     0.13731   0.81568   0.48680   0.00000  Uiso   1.00
C293   C     0.15586   0.83459   0.55018   0.00000  Uiso   1.00
C294   C     0.06287   0.90073   0.37161   0.00000  Uiso   1.00
C295   C     0.00272   0.87285   0.33159   0.00000  Uiso   1.00
C296   C     0.95972   0.91789   0.32398   0.00000  Uiso   1.00
C297   C     0.17361   0.90107   0.37216   0.00000  Uiso   1.00
C298   C     0.20657   0.87348   0.33258   0.00000  Uiso   1.00
C299   C     0.25679   0.91881   0.32541   0.00000  Uiso   1.00
H300   H     0.16068   0.04526   0.46874   0.00000  Uiso   1.00
H301   H     0.18399   0.01351   0.57479   0.00000  Uiso   1.00
H302   H     0.04942   0.07067   0.41959   0.00000  Uiso   1.00
H303   H     0.25324   0.07129   0.42059   0.00000  Uiso   1.00
H304   H     0.20248   0.94727   0.67855   0.00000  Uiso   1.00
H305   H     0.91875   0.06780   0.35130   0.00000  Uiso   1.00
H306   H     0.34854   0.06912   0.35339   0.00000  Uiso   1.00
H307   H     0.10424   0.80610   0.36236   0.00000  Uiso   1.00
H308   H     0.12445   0.76123   0.46256   0.00000  Uiso   1.00
H309   H     0.98988   0.81839   0.30737   0.00000  Uiso   1.00
H310   H     0.19370   0.81901   0.30836   0.00000  Uiso   1.00
H311   H     0.15416   0.74251   0.58746   0.00000  Uiso   1.00
H312   H     0.87043   0.86304   0.26021   0.00000  Uiso   1.00
H313   H     0.30022   0.86436   0.26230   0.00000  Uiso   1.00
O314   O     0.19262   0.81969   0.70084   0.00000  Uiso   1.00
O315   O     0.82038   0.97782   0.27149   0.00000  Uiso   1.00
O316   O     0.38425   0.97955   0.27424   0.00000  Uiso   1.00
N317   N     0.18835   0.90524   0.64336   0.00000  Uiso   1.00
N318   N     0.92307   0.01792   0.33740   0.00000  Uiso   1.00
N319   N     0.32488   0.01916   0.33935   0.00000  Uiso   1.00
N320   N     0.16235   0.79506   0.59435   0.00000  Uiso   1.00
N321   N     0.89707   0.90774   0.28839   0.00000  Uiso   1.00
N322   N     0.29888   0.90898   0.29034   0.00000  Uiso   1.00
C323   C     0.43183   0.15277   0.95713   0.00000  Uiso   1.00
C324   C     0.47907   0.14765   0.91907   0.00000  Uiso   1.00
C325   C     0.54482   0.16915   0.94110   0.00000  Uiso   1.00
C326   C     0.57972   0.15999   0.89893   0.00000  Uiso   1.00
C327   C     0.65762   0.15651   0.84925   0.00000  Uiso   1.00
C328   C     0.39434   0.07861   0.94619   0.00000  Uiso   1.00
C329   C     0.38883   0.04207   0.99103   0.00000  Uiso   1.00
C330   C     0.35239   0.97479   0.97168   0.00000  Uiso   1.00
C331   C     0.29870   0.86415   0.96412   0.00000  Uiso   1.00
C332   C     0.38442   0.19471   0.92797   0.00000  Uiso   1.00
C333   C     0.37056   0.25576   0.95749   0.00000  Uiso   1.00
C334   C     0.32576   0.28622   0.92280   0.00000  Uiso   1.00
C335   C     0.25667   0.35583   0.88695   0.00000  Uiso   1.00
C336   C     0.37688   0.09829   0.84306   0.00000  Uiso   1.00
C337   C     0.44923   0.11806   0.85711   0.00000  Uiso   1.00
C338   C     0.48403   0.10887   0.81489   0.00000  Uiso   1.00
C339   C     0.54982   0.13034   0.83685   0.00000  Uiso   1.00
C340   C     0.36449   0.04902   0.88423   0.00000  Uiso   1.00
C341   C     0.32805   0.98179   0.86481   0.00000  Uiso   1.00
C342   C     0.32249   0.94514   0.90961   0.00000  Uiso   1.00
C343   C     0.35457   0.16512   0.86601   0.00000  Uiso   1.00
C344   C     0.30978   0.19548   0.83127   0.00000  Uiso   1.00
C345   C     0.29586   0.25657   0.86073   0.00000  Uiso   1.00
H346   H     0.45506   0.17581   0.00537   0.00000  Uiso   1.00
H347   H     0.56790   0.19204   0.98906   0.00000  Uiso   1.00
H348   H     0.41193   0.06498   0.03897   0.00000  Uiso   1.00
H349   H     0.39366   0.27865   0.00543   0.00000  Uiso   1.00
H350   H     0.67984   0.19696   0.94364   0.00000  Uiso   1.00
H351   H     0.35096   0.92907   0.04890   0.00000  Uiso   1.00
H352   H     0.31244   0.37962   0.97818   0.00000  Uiso   1.00
H353   H     0.35365   0.07525   0.79482   0.00000  Uiso   1.00
H354   H     0.46092   0.08596   0.76694   0.00000  Uiso   1.00
H355   H     0.30496   0.95890   0.81686   0.00000  Uiso   1.00
H356   H     0.28669   0.17257   0.78332   0.00000  Uiso   1.00
H357   H     0.59302   0.11086   0.76337   0.00000  Uiso   1.00
H358   H     0.26413   0.84297   0.86862   0.00000  Uiso   1.00
H359   H     0.22562   0.29352   0.79790   0.00000  Uiso   1.00
O360   O     0.70883   0.16275   0.83897   0.00000  Uiso   1.00
O361   O     0.27734   0.81129   0.97706   0.00000  Uiso   1.00
O362   O     0.22681   0.40240   0.88428   0.00000  Uiso   1.00
N363   N     0.64469   0.17524   0.90504   0.00000  Uiso   1.00
N364   N     0.33721   0.92477   0.00344   0.00000  Uiso   1.00
N365   N     0.30118   0.34599   0.93733   0.00000  Uiso   1.00
N366   N     0.59797   0.12891   0.80803   0.00000  Uiso   1.00
N367   N     0.29049   0.87844   0.90644   0.00000  Uiso   1.00
N368   N     0.25447   0.29966   0.84033   0.00000  Uiso   1.00
C369   C     0.99847   0.36030   0.10969   0.00000  Uiso   1.00
C370   C     0.97489   0.42906   0.12172   0.00000  Uiso   1.00
C371   C     0.01233   0.49564   0.13727   0.00000  Uiso   1.00
C372   C     0.98173   0.55188   0.14636   0.00000  Uiso   1.00
C373   C     0.95510   0.66018   0.16595   0.00000  Uiso   1.00
C374   C     0.95862   0.32065   0.04583   0.00000  Uiso   1.00
C375   C     0.98238   0.29606   0.99759   0.00000  Uiso   1.00
C376   C     0.93809   0.26104   0.94281   0.00000  Uiso   1.00
C377   C     0.88619   0.20097   0.84460   0.00000  Uiso   1.00
C378   C     0.97905   0.31852   0.15363   0.00000  Uiso   1.00
C379   C     0.01999   0.29212   0.19602   0.00000  Uiso   1.00
C380   C     0.99290   0.25529   0.23198   0.00000  Uiso   1.00
C381   C     0.97273   0.19192   0.30115   0.00000  Uiso   1.00
C382   C     0.87756   0.34181   0.09818   0.00000  Uiso   1.00
C383   C     0.90921   0.41902   0.11546   0.00000  Uiso   1.00
C384   C     0.87855   0.47518   0.12453   0.00000  Uiso   1.00
C385   C     0.91594   0.54182   0.14010   0.00000  Uiso   1.00
C386   C     0.89294   0.31061   0.03958   0.00000  Uiso   1.00
C387   C     0.84861   0.27560   0.98485   0.00000  Uiso   1.00
C388   C     0.87229   0.25097   0.93654   0.00000  Uiso   1.00
C389   C     0.91337   0.30848   0.14738   0.00000  Uiso   1.00
C390   C     0.88621   0.27167   0.18328   0.00000  Uiso   1.00
C391   C     0.92710   0.24523   0.22571   0.00000  Uiso   1.00
H392   H     0.04960   0.36812   0.11456   0.00000  Uiso   1.00
H393   H     0.06315   0.50339   0.14210   0.00000  Uiso   1.00
H394   H     0.03320   0.30383   0.00245   0.00000  Uiso   1.00
H395   H     0.07081   0.29990   0.20084   0.00000  Uiso   1.00
H396   H     0.04921   0.64893   0.16986   0.00000  Uiso   1.00
H397   H     0.98607   0.22814   0.87540   0.00000  Uiso   1.00
H398   H     0.06536   0.21985   0.29375   0.00000  Uiso   1.00
H399   H     0.82643   0.33399   0.09331   0.00000  Uiso   1.00
H400   H     0.82773   0.46739   0.11969   0.00000  Uiso   1.00
H401   H     0.79779   0.26784   0.98003   0.00000  Uiso   1.00
H402   H     0.83539   0.26391   0.17843   0.00000  Uiso   1.00
H403   H     0.85813   0.61971   0.15166   0.00000  Uiso   1.00
H404   H     0.79499   0.19893   0.85720   0.00000  Uiso   1.00
H405   H     0.87428   0.19064   0.27556   0.00000  Uiso   1.00
O406   O     0.95855   0.72269   0.17847   0.00000  Uiso   1.00
O407   O     0.87572   0.17063   0.79216   0.00000  Uiso   1.00
O408   O     0.97975   0.15975   0.34103   0.00000  Uiso   1.00
N409   N     0.00406   0.62375   0.16197   0.00000  Uiso   1.00
N410   N     0.94503   0.23035   0.88666   0.00000  Uiso   1.00
N411   N     0.01916   0.22258   0.27778   0.00000  Uiso   1.00
N412   N     0.90124   0.60803   0.15218   0.00000  Uiso   1.00
N413   N     0.84221   0.21463   0.87687   0.00000  Uiso   1.00
N414   N     0.91634   0.20686   0.26799   0.00000  Uiso   1.00
C415   C     0.62621   0.89407   0.47393   0.00000  Uiso   1.00
C416   C     0.63944   0.95900   0.44874   0.00000  Uiso   1.00
C417   C     0.66364   0.02678   0.48325   0.00000  Uiso   1.00
C418   C     0.67233   0.07897   0.45161   0.00000  Uiso   1.00
C419   C     0.69513   0.18210   0.42221   0.00000  Uiso   1.00
C420   C     0.55606   0.86145   0.44334   0.00000  Uiso   1.00
C421   C     0.51015   0.84721   0.47331   0.00000  Uiso   1.00
C422   C     0.44864   0.81728   0.43711   0.00000  Uiso   1.00
C423   C     0.34200   0.76892   0.39932   0.00000  Uiso   1.00
C424   C     0.66419   0.84268   0.44914   0.00000  Uiso   1.00
C425   C     0.70919   0.81263   0.48398   0.00000  Uiso   1.00
C426   C     0.73871   0.76687   0.45267   0.00000  Uiso   1.00
C427   C     0.79996   0.68936   0.42389   0.00000  Uiso   1.00
C428   C     0.59860   0.86623   0.35636   0.00000  Uiso   1.00
C429   C     0.62445   0.94388   0.38488   0.00000  Uiso   1.00
C430   C     0.63310   0.99599   0.35318   0.00000  Uiso   1.00
C431   C     0.65731   0.06383   0.38764   0.00000  Uiso   1.00
C432   C     0.54106   0.84634   0.37948   0.00000  Uiso   1.00
C433   C     0.47961   0.81642   0.34323   0.00000  Uiso   1.00
C434   C     0.43362   0.80213   0.37313   0.00000  Uiso   1.00
C435   C     0.64920   0.82756   0.38528   0.00000  Uiso   1.00
C436   C     0.67865   0.78184   0.35390   0.00000  Uiso   1.00
C437   C     0.72368   0.75173   0.38869   0.00000  Uiso   1.00
H438   H     0.63788   0.90583   0.52364   0.00000  Uiso   1.00
H439   H     0.67524   0.03846   0.53267   0.00000  Uiso   1.00
H440   H     0.52177   0.85891   0.52272   0.00000  Uiso   1.00
H441   H     0.72078   0.82434   0.53340   0.00000  Uiso   1.00
H442   H     0.71002   0.17883   0.51452   0.00000  Uiso   1.00
H443   H     0.38644   0.80022   0.49354   0.00000  Uiso   1.00
H444   H     0.80608   0.72732   0.51605   0.00000  Uiso   1.00
H445   H     0.58692   0.85446   0.30664   0.00000  Uiso   1.00
H446   H     0.62149   0.98427   0.30376   0.00000  Uiso   1.00
H447   H     0.46802   0.80472   0.29381   0.00000  Uiso   1.00
H448   H     0.66703   0.77015   0.30449   0.00000  Uiso   1.00
H449   H     0.66640   0.13485   0.32872   0.00000  Uiso   1.00
H450   H     0.34281   0.75624   0.30775   0.00000  Uiso   1.00
H451   H     0.76246   0.68334   0.33026   0.00000  Uiso   1.00
O452   O     0.71185   0.24316   0.42364   0.00000  Uiso   1.00
O453   O     0.28732   0.74643   0.39612   0.00000  Uiso   1.00
O454   O     0.83789   0.65079   0.42566   0.00000  Uiso   1.00
N455   N     0.69502   0.15066   0.47119   0.00000  Uiso   1.00
N456   N     0.39249   0.79670   0.45158   0.00000  Uiso   1.00
N457   N     0.78481   0.72852   0.47262   0.00000  Uiso   1.00
N458   N     0.67155   0.12700   0.37121   0.00000  Uiso   1.00
N459   N     0.36901   0.77303   0.35160   0.00000  Uiso   1.00
N460   N     0.76134   0.70486   0.37265   0.00000  Uiso   1.00
C461   C     0.92918   0.50873   0.64698   0.00000  Uiso   1.00
C462   C     0.97706   0.46084   0.66054   0.00000  Uiso   1.00
C463   C     0.04276   0.48221   0.68343   0.00000  Uiso   1.00
C464   C     0.07829   0.43034   0.69268   0.00000  Uiso   1.00
C465   C     0.15708   0.36672   0.71570   0.00000  Uiso   1.00
C466   C     0.89161   0.48140   0.58001   0.00000  Uiso   1.00
C467   C     0.88546   0.52006   0.53521   0.00000  Uiso   1.00
C468   C     0.84905   0.48549   0.47666   0.00000  Uiso   1.00
C469   C     0.79514   0.45381   0.37468   0.00000  Uiso   1.00
C470   C     0.88207   0.49477   0.68374   0.00000  Uiso   1.00
C471   C     0.86787   0.54469   0.72615   0.00000  Uiso   1.00
C472   C     0.82342   0.52138   0.75494   0.00000  Uiso   1.00
C473   C     0.75469   0.51047   0.81401   0.00000  Uiso   1.00
C474   C     0.87546   0.37860   0.62268   0.00000  Uiso   1.00
C475   C     0.94788   0.39016   0.64733   0.00000  Uiso   1.00
C476   C     0.98333   0.33823   0.65655   0.00000  Uiso   1.00
C477   C     0.04907   0.35953   0.67945   0.00000  Uiso   1.00
C478   C     0.86243   0.41072   0.56681   0.00000  Uiso   1.00
C479   C     0.82603   0.37608   0.50832   0.00000  Uiso   1.00
C480   C     0.81982   0.41468   0.46344   0.00000  Uiso   1.00
C481   C     0.85289   0.42409   0.67055   0.00000  Uiso   1.00
C482   C     0.80845   0.40070   0.69927   0.00000  Uiso   1.00
C483   C     0.79419   0.45057   0.74171   0.00000  Uiso   1.00
H484   H     0.95189   0.56376   0.65726   0.00000  Uiso   1.00
H485   H     0.06532   0.53692   0.69364   0.00000  Uiso   1.00
H486   H     0.90804   0.57476   0.54544   0.00000  Uiso   1.00
H487   H     0.89046   0.59938   0.73635   0.00000  Uiso   1.00
H488   H     0.17821   0.47599   0.72813   0.00000  Uiso   1.00
H489   H     0.84655   0.55579   0.41565   0.00000  Uiso   1.00
H490   H     0.80949   0.60770   0.81823   0.00000  Uiso   1.00
H491   H     0.85275   0.32356   0.61240   0.00000  Uiso   1.00
H492   H     0.96074   0.28354   0.64633   0.00000  Uiso   1.00
H493   H     0.80345   0.32138   0.49812   0.00000  Uiso   1.00
H494   H     0.78588   0.34600   0.68904   0.00000  Uiso   1.00
H495   H     0.09332   0.27033   0.68973   0.00000  Uiso   1.00
H496   H     0.76166   0.35014   0.37724   0.00000  Uiso   1.00
H497   H     0.72460   0.40204   0.77983   0.00000  Uiso   1.00
O498   O     0.20859   0.35116   0.73203   0.00000  Uiso   1.00
O499   O     0.77346   0.45587   0.32207   0.00000  Uiso   1.00
O500   O     0.72484   0.52397   0.85025   0.00000  Uiso   1.00
N501   N     0.14341   0.43308   0.71445   0.00000  Uiso   1.00
N502   N     0.83334   0.50769   0.42229   0.00000  Uiso   1.00
N503   N     0.79867   0.55622   0.79866   0.00000  Uiso   1.00
N504   N     0.09773   0.32242   0.69379   0.00000  Uiso   1.00
N505   N     0.78766   0.39703   0.40163   0.00000  Uiso   1.00
N506   N     0.75300   0.44556   0.77800   0.00000  Uiso   1.00
C507   C     0.44426   0.64682   0.94078   0.00000  Uiso   1.00
C508   C     0.40584   0.64379   0.98696   0.00000  Uiso   1.00
C509   C     0.42978   0.66742   0.04982   0.00000  Uiso   1.00
C510   C     0.38689   0.65995   0.08419   0.00000  Uiso   1.00
C511   C     0.33705   0.65979   0.16009   0.00000  Uiso   1.00
C512   C     0.43449   0.57176   0.90464   0.00000  Uiso   1.00
C513   C     0.48252   0.53483   0.89827   0.00000  Uiso   1.00
C514   C     0.46375   0.46673   0.86334   0.00000  Uiso   1.00
C515   C     0.45839   0.35475   0.81139   0.00000  Uiso   1.00
C516   C     0.41108   0.68702   0.89598   0.00000  Uiso   1.00
C517   C     0.43944   0.74699   0.88232   0.00000  Uiso   1.00
C518   C     0.40096   0.77592   0.84008   0.00000  Uiso   1.00
C519   C     0.35926   0.84290   0.77469   0.00000  Uiso   1.00
C520   C     0.32552   0.59155   0.89005   0.00000  Uiso   1.00
C521   C     0.34134   0.61377   0.95940   0.00000  Uiso   1.00
C522   C     0.29841   0.60627   0.99369   0.00000  Uiso   1.00
C523   C     0.32228   0.62988   0.05659   0.00000  Uiso   1.00
C524   C     0.37000   0.54174   0.87708   0.00000  Uiso   1.00
C525   C     0.35115   0.47368   0.84214   0.00000  Uiso   1.00
C526   C     0.39914   0.43665   0.83573   0.00000  Uiso   1.00
C527   C     0.34659   0.65700   0.86842   0.00000  Uiso   1.00
C528   C     0.30806   0.68584   0.82619   0.00000  Uiso   1.00
C529   C     0.33635   0.74584   0.81247   0.00000  Uiso   1.00
H530   H     0.49447   0.67019   0.96223   0.00000  Uiso   1.00
H531   H     0.47969   0.69064   0.07113   0.00000  Uiso   1.00
H532   H     0.53243   0.55808   0.91960   0.00000  Uiso   1.00
H533   H     0.48935   0.77021   0.90365   0.00000  Uiso   1.00
H534   H     0.43487   0.70006   0.17970   0.00000  Uiso   1.00
H535   H     0.54606   0.42054   0.86019   0.00000  Uiso   1.00
H536   H     0.45522   0.86786   0.82655   0.00000  Uiso   1.00
H537   H     0.27531   0.56817   0.86859   0.00000  Uiso   1.00
H538   H     0.24850   0.58303   0.97235   0.00000  Uiso   1.00
H539   H     0.30124   0.45046   0.82082   0.00000  Uiso   1.00
H540   H     0.25815   0.66259   0.80488   0.00000  Uiso   1.00
H541   H     0.24723   0.61271   0.09954   0.00000  Uiso   1.00
H542   H     0.35842   0.33320   0.78001   0.00000  Uiso   1.00
H543   H     0.26758   0.78052   0.74639   0.00000  Uiso   1.00
O544   O     0.32737   0.66798   0.20957   0.00000  Uiso   1.00
O545   O     0.47326   0.30128   0.79036   0.00000  Uiso   1.00
O546   O     0.35407   0.88814   0.74624   0.00000  Uiso   1.00
N547   N     0.39438   0.67748   0.14660   0.00000  Uiso   1.00
N548   N     0.49834   0.41614   0.84787   0.00000  Uiso   1.00
N549   N     0.41342   0.83434   0.81642   0.00000  Uiso   1.00
N550   N     0.29341   0.63048   0.10346   0.00000  Uiso   1.00
N551   N     0.39737   0.36914   0.80474   0.00000  Uiso   1.00
N552   N     0.31245   0.78734   0.77328   0.00000  Uiso   1.00
