data_job_06101
_audit_creation_date              2018-12-19
_audit_creation_method            'Materials Studio'
_symmetry_space_group_name_H-M    'P1'
_symmetry_Int_Tables_number       1
_symmetry_cell_setting            triclinic
loop_
_symmetry_equiv_pos_as_xyz
  x,y,z
_cell_length_a                    16.1237
_cell_length_b                    18.0313
_cell_length_c                    18.5737
_cell_angle_alpha                 111.7730
_cell_angle_beta                  72.4927
_cell_angle_gamma                 75.5724
loop_
_atom_site_label
_atom_site_type_symbol
_atom_site_fract_x
_atom_site_fract_y
_atom_site_fract_z
_atom_site_U_iso_or_equiv
_atom_site_adp_type
_atom_site_occupancy
C1     C     0.46673   0.21296   0.64735   0.00000  Uiso   1.00
C2     C     0.57293   0.16942   0.62071   0.00000  Uiso   1.00
C3     C     0.61378   0.11578   0.64931   0.00000  Uiso   1.00
C4     C     0.71227   0.08233   0.61734   0.00000  Uiso   1.00
C5     C     0.86872   0.01178   0.58491   0.00000  Uiso   1.00
C6     C     0.44207   0.31068   0.68360   0.00000  Uiso   1.00
C7     C     0.37290   0.37579   0.76506   0.00000  Uiso   1.00
C8     C     0.36122   0.46125   0.78602   0.00000  Uiso   1.00
C9     C     0.31447   0.61001   0.85119   0.00000  Uiso   1.00
C10    C     0.45525   0.18346   0.56398   0.00000  Uiso   1.00
C11    C     0.39714   0.14164   0.54487   0.00000  Uiso   1.00
C12    C     0.39655   0.12001   0.46513   0.00000  Uiso   1.00
C13    C     0.37026   0.07125   0.34458   0.00000  Uiso   1.00
C14    C     0.56897   0.24895   0.53971   0.00000  Uiso   1.00
C15    C     0.62846   0.18897   0.56225   0.00000  Uiso   1.00
C16    C     0.72691   0.15559   0.53023   0.00000  Uiso   1.00
C17    C     0.76791   0.10190   0.55877   0.00000  Uiso   1.00
C18    C     0.49761   0.33022   0.62514   0.00000  Uiso   1.00
C19    C     0.48602   0.41560   0.64598   0.00000  Uiso   1.00
C20    C     0.41686   0.48084   0.72746   0.00000  Uiso   1.00
C21    C     0.51079   0.20300   0.50551   0.00000  Uiso   1.00
C22    C     0.51027   0.18145   0.42579   0.00000  Uiso   1.00
C23    C     0.45218   0.13959   0.40657   0.00000  Uiso   1.00
H24    H     0.42349   0.19775   0.69286   0.00000  Uiso   1.00
H25    H     0.57078   0.10067   0.69456   0.00000  Uiso   1.00
H26    H     0.32993   0.36065   0.81028   0.00000  Uiso   1.00
H27    H     0.35418   0.12653   0.59013   0.00000  Uiso   1.00
H28    H     0.75857   0.00169   0.67068   0.00000  Uiso   1.00
H29    H     0.25070   0.54986   0.91468   0.00000  Uiso   1.00
H30    H     0.30183   0.05617   0.45045   0.00000  Uiso   1.00
H31    H     0.61221   0.26417   0.49420   0.00000  Uiso   1.00
H32    H     0.76987   0.17072   0.48499   0.00000  Uiso   1.00
H33    H     0.52901   0.43070   0.60072   0.00000  Uiso   1.00
H34    H     0.55326   0.19658   0.38057   0.00000  Uiso   1.00
H35    H     0.92015   0.05855   0.50059   0.00000  Uiso   1.00
H36    H     0.41228   0.60673   0.74460   0.00000  Uiso   1.00
H37    H     0.46341   0.11303   0.28036   0.00000  Uiso   1.00
O38    O     0.93966   0.96748   0.58319   0.00000  Uiso   1.00
O39    O     0.27334   0.68666   0.90330   0.00000  Uiso   1.00
O40    O     0.34043   0.03895   0.29424   0.00000  Uiso   1.00
N41    N     0.77497   0.02788   0.63190   0.00000  Uiso   1.00
N42    N     0.30015   0.54039   0.86004   0.00000  Uiso   1.00
N43    N     0.34793   0.07885   0.42602   0.00000  Uiso   1.00
N44    N     0.86191   0.05847   0.54038   0.00000  Uiso   1.00
N45    N     0.38709   0.57099   0.76851   0.00000  Uiso   1.00
N46    N     0.43487   0.10944   0.33450   0.00000  Uiso   1.00
C47    C     0.11467   0.34613   0.56930   0.00000  Uiso   1.00
C48    C     0.19443   0.37744   0.55166   0.00000  Uiso   1.00
C49    C     0.26367   0.35145   0.47091   0.00000  Uiso   1.00
C50    C     0.33042   0.38760   0.46843   0.00000  Uiso   1.00
C51    C     0.45467   0.42706   0.42955   0.00000  Uiso   1.00
C52    C     0.12444   0.30836   0.62891   0.00000  Uiso   1.00
C53    C     0.13482   0.22429   0.61310   0.00000  Uiso   1.00
C54    C     0.14264   0.20230   0.67565   0.00000  Uiso   1.00
C55    C     0.15817   0.13454   0.75673   0.00000  Uiso   1.00
C56    C     0.02201   0.42826   0.62270   0.00000  Uiso   1.00
C57    C     0.94625   0.44500   0.60169   0.00000  Uiso   1.00
C58    C     0.86782   0.52395   0.65903   0.00000  Uiso   1.00
C59    C     0.72431   0.64235   0.73047   0.00000  Uiso   1.00
C60    C     0.11010   0.45657   0.70849   0.00000  Uiso   1.00
C61    C     0.19195   0.43743   0.62727   0.00000  Uiso   1.00
C62    C     0.25861   0.47364   0.62491   0.00000  Uiso   1.00
C63    C     0.32793   0.44770   0.54417   0.00000  Uiso   1.00
C64    C     0.12196   0.36835   0.70451   0.00000  Uiso   1.00
C65    C     0.12976   0.34648   0.76710   0.00000  Uiso   1.00
C66    C     0.14015   0.26240   0.75139   0.00000  Uiso   1.00
C67    C     0.01953   0.48825   0.69831   0.00000  Uiso   1.00
C68    C     0.94120   0.56719   0.75569   0.00000  Uiso   1.00
C69    C     0.86533   0.58405   0.73477   0.00000  Uiso   1.00
H70    H     0.11661   0.29943   0.51044   0.00000  Uiso   1.00
H71    H     0.26557   0.30502   0.41242   0.00000  Uiso   1.00
H72    H     0.13673   0.17789   0.55459   0.00000  Uiso   1.00
H73    H     0.94820   0.39856   0.54318   0.00000  Uiso   1.00
H74    H     0.42965   0.33764   0.33709   0.00000  Uiso   1.00
H75    H     0.15795   0.06959   0.63688   0.00000  Uiso   1.00
H76    H     0.76039   0.53493   0.61282   0.00000  Uiso   1.00
H77    H     0.10816   0.50328   0.76735   0.00000  Uiso   1.00
H78    H     0.25667   0.52006   0.68343   0.00000  Uiso   1.00
H79    H     0.12783   0.39292   0.82560   0.00000  Uiso   1.00
H80    H     0.93930   0.61360   0.81419   0.00000  Uiso   1.00
H81    H     0.42243   0.51217   0.55705   0.00000  Uiso   1.00
H82    H     0.15073   0.24412   0.85685   0.00000  Uiso   1.00
H83    H     0.75317   0.70946   0.83278   0.00000  Uiso   1.00
O84    O     0.52390   0.43225   0.38722   0.00000  Uiso   1.00
O85    O     0.16743   0.08058   0.78055   0.00000  Uiso   1.00
O86    O     0.64584   0.69109   0.74898   0.00000  Uiso   1.00
N87    N     0.40756   0.37643   0.40037   0.00000  Uiso   1.00
N88    N     0.15356   0.12581   0.68066   0.00000  Uiso   1.00
N89    N     0.78186   0.56086   0.65817   0.00000  Uiso   1.00
N90    N     0.40367   0.47035   0.51873   0.00000  Uiso   1.00
N91    N     0.14967   0.21973   0.79902   0.00000  Uiso   1.00
N92    N     0.77797   0.65477   0.77653   0.00000  Uiso   1.00
C93    C     0.68694   0.42563   0.77912   0.00000  Uiso   1.00
C94    C     0.74831   0.44623   0.82570   0.00000  Uiso   1.00
C95    C     0.73817   0.52925   0.87879   0.00000  Uiso   1.00
C96    C     0.80142   0.53427   0.91538   0.00000  Uiso   1.00
C97    C     0.88598   0.57770   0.99010   0.00000  Uiso   1.00
C98    C     0.75553   0.36751   0.68376   0.00000  Uiso   1.00
C99    C     0.75145   0.38433   0.61751   0.00000  Uiso   1.00
C100   C     0.82078   0.32308   0.53462   0.00000  Uiso   1.00
C101   C     0.91650   0.24427   0.38897   0.00000  Uiso   1.00
C102   C     0.64631   0.36811   0.80773   0.00000  Uiso   1.00
C103   C     0.55040   0.38543   0.84569   0.00000  Uiso   1.00
C104   C     0.52778   0.32467   0.86715   0.00000  Uiso   1.00
C105   C     0.45393   0.24680   0.91398   0.00000  Uiso   1.00
C106   C     0.81730   0.28692   0.74969   0.00000  Uiso   1.00
C107   C     0.81912   0.37088   0.80971   0.00000  Uiso   1.00
C108   C     0.88240   0.37577   0.84623   0.00000  Uiso   1.00
C109   C     0.87236   0.45879   0.89937   0.00000  Uiso   1.00
C110   C     0.82634   0.29217   0.66777   0.00000  Uiso   1.00
C111   C     0.89568   0.23087   0.58496   0.00000  Uiso   1.00
C112   C     0.89171   0.24760   0.51860   0.00000  Uiso   1.00
C113   C     0.71712   0.29277   0.79175   0.00000  Uiso   1.00
C114   C     0.69464   0.23196   0.81314   0.00000  Uiso   1.00
C115   C     0.59872   0.24919   0.85113   0.00000  Uiso   1.00
H116   H     0.63181   0.48429   0.79156   0.00000  Uiso   1.00
H117   H     0.68337   0.58754   0.89114   0.00000  Uiso   1.00
H118   H     0.69664   0.44264   0.62990   0.00000  Uiso   1.00
H119   H     0.49563   0.44374   0.85805   0.00000  Uiso   1.00
H120   H     0.77178   0.66878   0.99446   0.00000  Uiso   1.00
H121   H     0.79974   0.36325   0.44363   0.00000  Uiso   1.00
H122   H     0.37587   0.36556   0.92473   0.00000  Uiso   1.00
H123   H     0.87243   0.22826   0.73725   0.00000  Uiso   1.00
H124   H     0.93719   0.31746   0.83385   0.00000  Uiso   1.00
H125   H     0.95046   0.17257   0.57261   0.00000  Uiso   1.00
H126   H     0.74945   0.17366   0.80076   0.00000  Uiso   1.00
H127   H     0.97779   0.44957   0.94796   0.00000  Uiso   1.00
H128   H     0.00575   0.14404   0.39713   0.00000  Uiso   1.00
H129   H     0.58189   0.14636   0.87823   0.00000  Uiso   1.00
O130   O     0.91307   0.62247   0.03572   0.00000  Uiso   1.00
O131   O     0.94974   0.22162   0.31305   0.00000  Uiso   1.00
O132   O     0.39363   0.22466   0.94424   0.00000  Uiso   1.00
N133   N     0.81136   0.60495   0.97028   0.00000  Uiso   1.00
N134   N     0.83752   0.31930   0.45528   0.00000  Uiso   1.00
N135   N     0.44123   0.32145   0.90504   0.00000  Uiso   1.00
N136   N     0.92222   0.48700   0.94526   0.00000  Uiso   1.00
N137   N     0.94837   0.20135   0.43026   0.00000  Uiso   1.00
N138   N     0.55209   0.20350   0.88002   0.00000  Uiso   1.00
C139   C     0.53327   0.78704   0.35265   0.00000  Uiso   1.00
C140   C     0.42707   0.83058   0.37929   0.00000  Uiso   1.00
C141   C     0.38621   0.88422   0.35069   0.00000  Uiso   1.00
C142   C     0.28773   0.91767   0.38266   0.00000  Uiso   1.00
C143   C     0.13128   0.98822   0.41509   0.00000  Uiso   1.00
C144   C     0.55793   0.68932   0.31640   0.00000  Uiso   1.00
C145   C     0.62710   0.62421   0.23494   0.00000  Uiso   1.00
C146   C     0.63878   0.53875   0.21398   0.00000  Uiso   1.00
C147   C     0.68553   0.38999   0.14881   0.00000  Uiso   1.00
C148   C     0.54475   0.81654   0.43602   0.00000  Uiso   1.00
C149   C     0.60286   0.85836   0.45513   0.00000  Uiso   1.00
C150   C     0.60345   0.87999   0.53487   0.00000  Uiso   1.00
C151   C     0.62974   0.92875   0.65542   0.00000  Uiso   1.00
C152   C     0.43103   0.75105   0.46029   0.00000  Uiso   1.00
C153   C     0.37154   0.81103   0.43775   0.00000  Uiso   1.00
C154   C     0.27309   0.84441   0.46977   0.00000  Uiso   1.00
C155   C     0.23209   0.89810   0.44123   0.00000  Uiso   1.00
C156   C     0.50239   0.66978   0.37486   0.00000  Uiso   1.00
C157   C     0.51398   0.58440   0.35402   0.00000  Uiso   1.00
C158   C     0.58314   0.51916   0.27255   0.00000  Uiso   1.00
C159   C     0.48921   0.79700   0.49449   0.00000  Uiso   1.00
C160   C     0.48973   0.81855   0.57421   0.00000  Uiso   1.00
C161   C     0.54782   0.86041   0.59343   0.00000  Uiso   1.00
H162   H     0.57651   0.80225   0.30714   0.00000  Uiso   1.00
H163   H     0.42922   0.89933   0.30544   0.00000  Uiso   1.00
H164   H     0.67007   0.63935   0.18972   0.00000  Uiso   1.00
H165   H     0.64582   0.87347   0.40987   0.00000  Uiso   1.00
H166   H     0.24143   0.99831   0.32932   0.00000  Uiso   1.00
H167   H     0.74930   0.45014   0.08532   0.00000  Uiso   1.00
H168   H     0.69817   0.94383   0.54955   0.00000  Uiso   1.00
H169   H     0.38779   0.73583   0.50580   0.00000  Uiso   1.00
H170   H     0.23013   0.82928   0.51501   0.00000  Uiso   1.00
H171   H     0.47099   0.56930   0.39928   0.00000  Uiso   1.00
H172   H     0.44674   0.80342   0.61943   0.00000  Uiso   1.00
H173   H     0.07984   0.94145   0.49941   0.00000  Uiso   1.00
H174   H     0.58772   0.39327   0.25541   0.00000  Uiso   1.00
H175   H     0.53659   0.88697   0.71964   0.00000  Uiso   1.00
O176   O     0.06034   0.03252   0.41681   0.00000  Uiso   1.00
O177   O     0.72666   0.31334   0.09670   0.00000  Uiso   1.00
O178   O     0.65957   0.96105   0.70577   0.00000  Uiso   1.00
N179   N     0.22503   0.97212   0.36810   0.00000  Uiso   1.00
N180   N     0.69985   0.45961   0.13996   0.00000  Uiso   1.00
N181   N     0.65207   0.92115   0.57398   0.00000  Uiso   1.00
N182   N     0.13809   0.94153   0.45962   0.00000  Uiso   1.00
N183   N     0.61291   0.42901   0.23149   0.00000  Uiso   1.00
N184   N     0.56513   0.89056   0.66550   0.00000  Uiso   1.00
C185   C     0.88533   0.65387   0.43071   0.00000  Uiso   1.00
C186   C     0.80557   0.62256   0.44834   0.00000  Uiso   1.00
C187   C     0.73633   0.64855   0.52909   0.00000  Uiso   1.00
C188   C     0.66958   0.61240   0.53157   0.00000  Uiso   1.00
C189   C     0.54533   0.57294   0.57045   0.00000  Uiso   1.00
C190   C     0.87556   0.69164   0.37109   0.00000  Uiso   1.00
C191   C     0.86518   0.77571   0.38690   0.00000  Uiso   1.00
C192   C     0.85736   0.79770   0.32435   0.00000  Uiso   1.00
C193   C     0.84183   0.86546   0.24327   0.00000  Uiso   1.00
C194   C     0.97799   0.57174   0.37730   0.00000  Uiso   1.00
C195   C     0.05375   0.55500   0.39831   0.00000  Uiso   1.00
C196   C     0.13218   0.47605   0.34097   0.00000  Uiso   1.00
C197   C     0.27569   0.35765   0.26953   0.00000  Uiso   1.00
C198   C     0.88990   0.54343   0.29151   0.00000  Uiso   1.00
C199   C     0.80805   0.56257   0.37273   0.00000  Uiso   1.00
C200   C     0.74139   0.52636   0.37509   0.00000  Uiso   1.00
C201   C     0.67207   0.55230   0.45583   0.00000  Uiso   1.00
C202   C     0.87804   0.63165   0.29549   0.00000  Uiso   1.00
C203   C     0.87024   0.65352   0.23290   0.00000  Uiso   1.00
C204   C     0.85985   0.73760   0.24861   0.00000  Uiso   1.00
C205   C     0.98047   0.51175   0.30169   0.00000  Uiso   1.00
C206   C     0.05880   0.43281   0.24431   0.00000  Uiso   1.00
C207   C     0.13467   0.41595   0.26523   0.00000  Uiso   1.00
H208   H     0.88339   0.70057   0.48956   0.00000  Uiso   1.00
H209   H     0.73443   0.69498   0.58758   0.00000  Uiso   1.00
H210   H     0.86327   0.82211   0.44541   0.00000  Uiso   1.00
H211   H     0.05180   0.60144   0.45682   0.00000  Uiso   1.00
H212   H     0.57035   0.66236   0.66292   0.00000  Uiso   1.00
H213   H     0.84204   0.93041   0.36312   0.00000  Uiso   1.00
H214   H     0.23961   0.46507   0.38718   0.00000  Uiso   1.00
H215   H     0.89184   0.49672   0.23265   0.00000  Uiso   1.00
H216   H     0.74333   0.47994   0.31658   0.00000  Uiso   1.00
H217   H     0.87217   0.60708   0.17440   0.00000  Uiso   1.00
H218   H     0.06070   0.38640   0.18581   0.00000  Uiso   1.00
H219   H     0.57757   0.48783   0.44296   0.00000  Uiso   1.00
H220   H     0.84927   0.75588   0.14315   0.00000  Uiso   1.00
H221   H     0.24683   0.29054   0.16722   0.00000  Uiso   1.00
O222   O     0.47610   0.56775   0.61278   0.00000  Uiso   1.00
O223   O     0.83257   0.91942   0.21945   0.00000  Uiso   1.00
O224   O     0.35416   0.30891   0.25102   0.00000  Uiso   1.00
N225   N     0.59244   0.62357   0.59963   0.00000  Uiso   1.00
N226   N     0.84644   0.87419   0.31934   0.00000  Uiso   1.00
N227   N     0.21814   0.43915   0.34183   0.00000  Uiso   1.00
N228   N     0.59633   0.52965   0.48127   0.00000  Uiso   1.00
N229   N     0.85033   0.78027   0.20098   0.00000  Uiso   1.00
N230   N     0.22203   0.34523   0.22347   0.00000  Uiso   1.00
C231   C     0.31306   0.57437   0.22088   0.00000  Uiso   1.00
C232   C     0.25169   0.55377   0.17430   0.00000  Uiso   1.00
C233   C     0.26183   0.47075   0.12121   0.00000  Uiso   1.00
C234   C     0.19857   0.46574   0.08462   0.00000  Uiso   1.00
C235   C     0.11402   0.42230   0.00990   0.00000  Uiso   1.00
C236   C     0.24447   0.63249   0.31624   0.00000  Uiso   1.00
C237   C     0.24855   0.61567   0.38249   0.00000  Uiso   1.00
C238   C     0.17922   0.67692   0.46538   0.00000  Uiso   1.00
C239   C     0.08350   0.75573   0.61103   0.00000  Uiso   1.00
C240   C     0.35369   0.63189   0.19227   0.00000  Uiso   1.00
C241   C     0.44960   0.61457   0.15431   0.00000  Uiso   1.00
C242   C     0.47222   0.67533   0.13285   0.00000  Uiso   1.00
C243   C     0.54607   0.75320   0.08602   0.00000  Uiso   1.00
C244   C     0.18270   0.71308   0.25031   0.00000  Uiso   1.00
C245   C     0.18088   0.62912   0.19029   0.00000  Uiso   1.00
C246   C     0.11760   0.62423   0.15377   0.00000  Uiso   1.00
C247   C     0.12764   0.54121   0.10063   0.00000  Uiso   1.00
C248   C     0.17366   0.70784   0.33223   0.00000  Uiso   1.00
C249   C     0.10432   0.76914   0.41504   0.00000  Uiso   1.00
C250   C     0.10829   0.75240   0.48140   0.00000  Uiso   1.00
C251   C     0.28288   0.70723   0.20825   0.00000  Uiso   1.00
C252   C     0.30536   0.76804   0.18686   0.00000  Uiso   1.00
C253   C     0.40128   0.75081   0.14887   0.00000  Uiso   1.00
H254   H     0.36819   0.51571   0.20844   0.00000  Uiso   1.00
H255   H     0.31663   0.41246   0.10886   0.00000  Uiso   1.00
H256   H     0.30336   0.55736   0.37010   0.00000  Uiso   1.00
H257   H     0.50437   0.55626   0.14195   0.00000  Uiso   1.00
H258   H     0.22822   0.33122   0.00554   0.00000  Uiso   1.00
H259   H     0.20026   0.63675   0.55637   0.00000  Uiso   1.00
H260   H     0.62413   0.63444   0.07527   0.00000  Uiso   1.00
H261   H     0.12757   0.77174   0.26275   0.00000  Uiso   1.00
H262   H     0.06281   0.68254   0.16615   0.00000  Uiso   1.00
H263   H     0.04954   0.82744   0.42739   0.00000  Uiso   1.00
H264   H     0.25055   0.82634   0.19924   0.00000  Uiso   1.00
H265   H     0.02220   0.55043   0.05204   0.00000  Uiso   1.00
H266   H     0.99425   0.85596   0.60287   0.00000  Uiso   1.00
H267   H     0.41811   0.85365   0.12177   0.00000  Uiso   1.00
O268   O     0.08693   0.37753   0.96428   0.00000  Uiso   1.00
O269   O     0.05026   0.77838   0.68695   0.00000  Uiso   1.00
O270   O     0.60637   0.77534   0.05576   0.00000  Uiso   1.00
N271   N     0.18863   0.39505   0.02972   0.00000  Uiso   1.00
N272   N     0.16248   0.68070   0.54472   0.00000  Uiso   1.00
N273   N     0.55877   0.67855   0.09496   0.00000  Uiso   1.00
N274   N     0.07778   0.51300   0.05474   0.00000  Uiso   1.00
N275   N     0.05163   0.79865   0.56974   0.00000  Uiso   1.00
N276   N     0.44791   0.79650   0.11998   0.00000  Uiso   1.00
