data_job_03130
_audit_creation_date              2018-12-19
_audit_creation_method            'Materials Studio'
_symmetry_space_group_name_H-M    'P1'
_symmetry_Int_Tables_number       1
_symmetry_cell_setting            triclinic
loop_
_symmetry_equiv_pos_as_xyz
  x,y,z
_cell_length_a                    13.4718
_cell_length_b                    10.3466
_cell_length_c                    27.0122
_cell_angle_alpha                 90.0000
_cell_angle_beta                  136.3058
_cell_angle_gamma                 90.0000
loop_
_atom_site_label
_atom_site_type_symbol
_atom_site_fract_x
_atom_site_fract_y
_atom_site_fract_z
_atom_site_U_iso_or_equiv
_atom_site_adp_type
_atom_site_occupancy
C1     C     0.01910   0.82428   0.17159   0.00000  Uiso   1.00
C2     C     0.99911   0.77839   0.11117   0.00000  Uiso   1.00
C3     C     0.88749   0.70153   0.05379   0.00000  Uiso   1.00
C4     C     0.88845   0.67005   0.00417   0.00000  Uiso   1.00
C5     C     0.84091   0.59207   0.90924   0.00000  Uiso   1.00
C6     C     0.16803   0.77847   0.24099   0.00000  Uiso   1.00
C7     C     0.19841   0.70168   0.29275   0.00000  Uiso   1.00
C8     C     0.34157   0.67029   0.35242   0.00000  Uiso   1.00
C9     C     0.55628   0.59250   0.45905   0.00000  Uiso   1.00
C10    C     0.02738   0.97134   0.17215   0.00000  Uiso   1.00
C11    C     0.93954   0.05673   0.16604   0.00000  Uiso   1.00
C12    C     0.96431   0.18771   0.16777   0.00000  Uiso   1.00
C13    C     0.96065   0.40938   0.16750   0.00000  Uiso   1.00
C14    C     0.21932   0.90507   0.18552   0.00000  Uiso   1.00
C15    C     0.10787   0.82227   0.11874   0.00000  Uiso   1.00
C16    C     0.10900   0.79091   0.06920   0.00000  Uiso   1.00
C17    C     0.99739   0.71401   0.01175   0.00000  Uiso   1.00
C18    C     0.27677   0.82234   0.24856   0.00000  Uiso   1.00
C19    C     0.41992   0.79106   0.30816   0.00000  Uiso   1.00
C20    C     0.45052   0.71424   0.36000   0.00000  Uiso   1.00
C21    C     0.13613   0.01522   0.17971   0.00000  Uiso   1.00
C22    C     0.16105   0.14610   0.18145   0.00000  Uiso   1.00
C23    C     0.07326   0.23167   0.17535   0.00000  Uiso   1.00
H24    H     0.93445   0.79012   0.16570   0.00000  Uiso   1.00
H25    H     0.80335   0.66758   0.04795   0.00000  Uiso   1.00
H26    H     0.11423   0.66775   0.28688   0.00000  Uiso   1.00
H27    H     0.85540   0.02273   0.16019   0.00000  Uiso   1.00
H28    H     0.70600   0.55104   0.92076   0.00000  Uiso   1.00
H29    H     0.36151   0.55143   0.42457   0.00000  Uiso   1.00
H30    H     0.81571   0.29998   0.15741   0.00000  Uiso   1.00
H31    H     0.30399   0.93923   0.19141   0.00000  Uiso   1.00
H32    H     0.19317   0.82488   0.07507   0.00000  Uiso   1.00
H33    H     0.50405   0.82504   0.31400   0.00000  Uiso   1.00
H34    H     0.24522   0.18002   0.18731   0.00000  Uiso   1.00
H35    H     0.02239   0.67870   0.94278   0.00000  Uiso   1.00
H36    H     0.67791   0.67910   0.44659   0.00000  Uiso   1.00
H37    H     0.13210   0.42764   0.17942   0.00000  Uiso   1.00
O38    O     0.78466   0.53692   0.85479   0.00000  Uiso   1.00
O39    O     0.64466   0.53745   0.51577   0.00000  Uiso   1.00
O40    O     0.92858   0.51953   0.16526   0.00000  Uiso   1.00
N41    N     0.79566   0.59680   0.94190   0.00000  Uiso   1.00
N42    N     0.40852   0.59715   0.41293   0.00000  Uiso   1.00
N43    N     0.89826   0.29698   0.16318   0.00000  Uiso   1.00
N44    N     0.96590   0.66549   0.95375   0.00000  Uiso   1.00
N45    N     0.57876   0.66584   0.42477   0.00000  Uiso   1.00
N46    N     0.06851   0.36567   0.17502   0.00000  Uiso   1.00
C47    C     0.98090   0.82428   0.32841   0.00000  Uiso   1.00
C48    C     0.00089   0.77839   0.38883   0.00000  Uiso   1.00
C49    C     0.11251   0.70153   0.44621   0.00000  Uiso   1.00
C50    C     0.11155   0.67005   0.49583   0.00000  Uiso   1.00
C51    C     0.15909   0.59207   0.59076   0.00000  Uiso   1.00
C52    C     0.83197   0.77847   0.25901   0.00000  Uiso   1.00
C53    C     0.80159   0.70168   0.20725   0.00000  Uiso   1.00
C54    C     0.65843   0.67029   0.14758   0.00000  Uiso   1.00
C55    C     0.44372   0.59250   0.04095   0.00000  Uiso   1.00
C56    C     0.97262   0.97134   0.32785   0.00000  Uiso   1.00
C57    C     0.06046   0.05673   0.33396   0.00000  Uiso   1.00
C58    C     0.03569   0.18771   0.33223   0.00000  Uiso   1.00
C59    C     0.03935   0.40938   0.33250   0.00000  Uiso   1.00
C60    C     0.78068   0.90507   0.31448   0.00000  Uiso   1.00
C61    C     0.89213   0.82227   0.38126   0.00000  Uiso   1.00
C62    C     0.89100   0.79091   0.43080   0.00000  Uiso   1.00
C63    C     0.00261   0.71401   0.48825   0.00000  Uiso   1.00
C64    C     0.72323   0.82234   0.25144   0.00000  Uiso   1.00
C65    C     0.58008   0.79106   0.19184   0.00000  Uiso   1.00
C66    C     0.54948   0.71424   0.14000   0.00000  Uiso   1.00
C67    C     0.86387   0.01522   0.32029   0.00000  Uiso   1.00
C68    C     0.83895   0.14610   0.31855   0.00000  Uiso   1.00
C69    C     0.92674   0.23167   0.32465   0.00000  Uiso   1.00
H70    H     0.06555   0.79012   0.33430   0.00000  Uiso   1.00
H71    H     0.19665   0.66758   0.45205   0.00000  Uiso   1.00
H72    H     0.88577   0.66775   0.21312   0.00000  Uiso   1.00
H73    H     0.14460   0.02273   0.33981   0.00000  Uiso   1.00
H74    H     0.29400   0.55104   0.57924   0.00000  Uiso   1.00
H75    H     0.63849   0.55143   0.07543   0.00000  Uiso   1.00
H76    H     0.18429   0.29998   0.34259   0.00000  Uiso   1.00
H77    H     0.69601   0.93923   0.30859   0.00000  Uiso   1.00
H78    H     0.80683   0.82488   0.42493   0.00000  Uiso   1.00
H79    H     0.49595   0.82504   0.18600   0.00000  Uiso   1.00
H80    H     0.75478   0.18002   0.31269   0.00000  Uiso   1.00
H81    H     0.97761   0.67870   0.55722   0.00000  Uiso   1.00
H82    H     0.32209   0.67910   0.05341   0.00000  Uiso   1.00
H83    H     0.86790   0.42764   0.32058   0.00000  Uiso   1.00
O84    O     0.21534   0.53692   0.64521   0.00000  Uiso   1.00
O85    O     0.35534   0.53745   0.98423   0.00000  Uiso   1.00
O86    O     0.07142   0.51953   0.33474   0.00000  Uiso   1.00
N87    N     0.20434   0.59680   0.55810   0.00000  Uiso   1.00
N88    N     0.59148   0.59715   0.08707   0.00000  Uiso   1.00
N89    N     0.10174   0.29698   0.33682   0.00000  Uiso   1.00
N90    N     0.03410   0.66549   0.54625   0.00000  Uiso   1.00
N91    N     0.42124   0.66584   0.07523   0.00000  Uiso   1.00
N92    N     0.93149   0.36567   0.32498   0.00000  Uiso   1.00
C93    C     0.98090   0.17572   0.82841   0.00000  Uiso   1.00
C94    C     0.00089   0.22161   0.88883   0.00000  Uiso   1.00
C95    C     0.11251   0.29847   0.94621   0.00000  Uiso   1.00
C96    C     0.11155   0.32995   0.99583   0.00000  Uiso   1.00
C97    C     0.15909   0.40793   0.09076   0.00000  Uiso   1.00
C98    C     0.83197   0.22153   0.75901   0.00000  Uiso   1.00
C99    C     0.80159   0.29832   0.70725   0.00000  Uiso   1.00
C100   C     0.65843   0.32971   0.64758   0.00000  Uiso   1.00
C101   C     0.44372   0.40750   0.54095   0.00000  Uiso   1.00
C102   C     0.97262   0.02866   0.82785   0.00000  Uiso   1.00
C103   C     0.06046   0.94327   0.83396   0.00000  Uiso   1.00
C104   C     0.03569   0.81229   0.83223   0.00000  Uiso   1.00
C105   C     0.03935   0.59062   0.83250   0.00000  Uiso   1.00
C106   C     0.78068   0.09493   0.81448   0.00000  Uiso   1.00
C107   C     0.89213   0.17773   0.88126   0.00000  Uiso   1.00
C108   C     0.89100   0.20909   0.93080   0.00000  Uiso   1.00
C109   C     0.00261   0.28599   0.98825   0.00000  Uiso   1.00
C110   C     0.72323   0.17766   0.75144   0.00000  Uiso   1.00
C111   C     0.58008   0.20894   0.69184   0.00000  Uiso   1.00
C112   C     0.54948   0.28576   0.64000   0.00000  Uiso   1.00
C113   C     0.86387   0.98478   0.82029   0.00000  Uiso   1.00
C114   C     0.83895   0.85390   0.81855   0.00000  Uiso   1.00
C115   C     0.92674   0.76833   0.82465   0.00000  Uiso   1.00
H116   H     0.06555   0.20988   0.83430   0.00000  Uiso   1.00
H117   H     0.19665   0.33242   0.95205   0.00000  Uiso   1.00
H118   H     0.88577   0.33225   0.71312   0.00000  Uiso   1.00
H119   H     0.14460   0.97727   0.83981   0.00000  Uiso   1.00
H120   H     0.29400   0.44896   0.07924   0.00000  Uiso   1.00
H121   H     0.63849   0.44857   0.57543   0.00000  Uiso   1.00
H122   H     0.18429   0.70002   0.84259   0.00000  Uiso   1.00
H123   H     0.69601   0.06077   0.80859   0.00000  Uiso   1.00
H124   H     0.80683   0.17512   0.92493   0.00000  Uiso   1.00
H125   H     0.49595   0.17496   0.68600   0.00000  Uiso   1.00
H126   H     0.75478   0.81998   0.81269   0.00000  Uiso   1.00
H127   H     0.97761   0.32130   0.05722   0.00000  Uiso   1.00
H128   H     0.32209   0.32090   0.55341   0.00000  Uiso   1.00
H129   H     0.86790   0.57236   0.82058   0.00000  Uiso   1.00
O130   O     0.21534   0.46308   0.14521   0.00000  Uiso   1.00
O131   O     0.35534   0.46255   0.48423   0.00000  Uiso   1.00
O132   O     0.07142   0.48047   0.83474   0.00000  Uiso   1.00
N133   N     0.20434   0.40320   0.05810   0.00000  Uiso   1.00
N134   N     0.59148   0.40285   0.58707   0.00000  Uiso   1.00
N135   N     0.10174   0.70302   0.83682   0.00000  Uiso   1.00
N136   N     0.03410   0.33451   0.04625   0.00000  Uiso   1.00
N137   N     0.42124   0.33416   0.57523   0.00000  Uiso   1.00
N138   N     0.93149   0.63433   0.82498   0.00000  Uiso   1.00
C139   C     0.01910   0.17572   0.67159   0.00000  Uiso   1.00
C140   C     0.99911   0.22161   0.61117   0.00000  Uiso   1.00
C141   C     0.88749   0.29847   0.55379   0.00000  Uiso   1.00
C142   C     0.88845   0.32995   0.50417   0.00000  Uiso   1.00
C143   C     0.84091   0.40793   0.40924   0.00000  Uiso   1.00
C144   C     0.16803   0.22153   0.74099   0.00000  Uiso   1.00
C145   C     0.19841   0.29832   0.79275   0.00000  Uiso   1.00
C146   C     0.34157   0.32971   0.85242   0.00000  Uiso   1.00
C147   C     0.55628   0.40750   0.95905   0.00000  Uiso   1.00
C148   C     0.02738   0.02866   0.67215   0.00000  Uiso   1.00
C149   C     0.93954   0.94327   0.66604   0.00000  Uiso   1.00
C150   C     0.96431   0.81229   0.66777   0.00000  Uiso   1.00
C151   C     0.96065   0.59062   0.66750   0.00000  Uiso   1.00
C152   C     0.21932   0.09493   0.68552   0.00000  Uiso   1.00
C153   C     0.10787   0.17773   0.61874   0.00000  Uiso   1.00
C154   C     0.10900   0.20909   0.56920   0.00000  Uiso   1.00
C155   C     0.99739   0.28599   0.51175   0.00000  Uiso   1.00
C156   C     0.27677   0.17766   0.74856   0.00000  Uiso   1.00
C157   C     0.41992   0.20894   0.80816   0.00000  Uiso   1.00
C158   C     0.45052   0.28576   0.86000   0.00000  Uiso   1.00
C159   C     0.13613   0.98478   0.67971   0.00000  Uiso   1.00
C160   C     0.16105   0.85390   0.68145   0.00000  Uiso   1.00
C161   C     0.07326   0.76833   0.67535   0.00000  Uiso   1.00
H162   H     0.93445   0.20988   0.66570   0.00000  Uiso   1.00
H163   H     0.80335   0.33242   0.54795   0.00000  Uiso   1.00
H164   H     0.11423   0.33225   0.78688   0.00000  Uiso   1.00
H165   H     0.85540   0.97727   0.66019   0.00000  Uiso   1.00
H166   H     0.70600   0.44896   0.42076   0.00000  Uiso   1.00
H167   H     0.36151   0.44857   0.92457   0.00000  Uiso   1.00
H168   H     0.81571   0.70002   0.65741   0.00000  Uiso   1.00
H169   H     0.30399   0.06077   0.69141   0.00000  Uiso   1.00
H170   H     0.19317   0.17512   0.57507   0.00000  Uiso   1.00
H171   H     0.50405   0.17496   0.81400   0.00000  Uiso   1.00
H172   H     0.24522   0.81998   0.68731   0.00000  Uiso   1.00
H173   H     0.02239   0.32130   0.44278   0.00000  Uiso   1.00
H174   H     0.67791   0.32090   0.94659   0.00000  Uiso   1.00
H175   H     0.13210   0.57236   0.67942   0.00000  Uiso   1.00
O176   O     0.78466   0.46308   0.35479   0.00000  Uiso   1.00
O177   O     0.64466   0.46255   0.01577   0.00000  Uiso   1.00
O178   O     0.92858   0.48047   0.66526   0.00000  Uiso   1.00
N179   N     0.79566   0.40320   0.44190   0.00000  Uiso   1.00
N180   N     0.40852   0.40285   0.91293   0.00000  Uiso   1.00
N181   N     0.89826   0.70302   0.66318   0.00000  Uiso   1.00
N182   N     0.96590   0.33451   0.45375   0.00000  Uiso   1.00
N183   N     0.57876   0.33416   0.92477   0.00000  Uiso   1.00
N184   N     0.06851   0.63433   0.67502   0.00000  Uiso   1.00
