data_job_03262
_audit_creation_date              2018-12-19
_audit_creation_method            'Materials Studio'
_symmetry_space_group_name_H-M    'P1'
_symmetry_Int_Tables_number       1
_symmetry_cell_setting            triclinic
loop_
_symmetry_equiv_pos_as_xyz
  x,y,z
_cell_length_a                    12.6619
_cell_length_b                    12.6619
_cell_length_c                    28.7029
_cell_angle_alpha                 90.0000
_cell_angle_beta                  90.0000
_cell_angle_gamma                 120.0000
loop_
_atom_site_label
_atom_site_type_symbol
_atom_site_fract_x
_atom_site_fract_y
_atom_site_fract_z
_atom_site_U_iso_or_equiv
_atom_site_adp_type
_atom_site_occupancy
C1     C     0.92431   0.63167   0.13701   0.00000  Uiso   1.00
C2     C     0.91954   0.52621   0.16444   0.00000  Uiso   1.00
C3     C     0.81652   0.41305   0.17143   0.00000  Uiso   1.00
C4     C     0.83106   0.32887   0.19754   0.00000  Uiso   1.00
C5     C     0.80638   0.16087   0.23733   0.00000  Uiso   1.00
C6     C     0.97551   0.73992   0.17034   0.00000  Uiso   1.00
C7     C     0.91955   0.80644   0.18230   0.00000  Uiso   1.00
C8     C     0.98121   0.90217   0.21337   0.00000  Uiso   1.00
C9     C     0.04346   0.06602   0.26230   0.00000  Uiso   1.00
C10    C     0.02111   0.66433   0.09951   0.00000  Uiso   1.00
C11    C     0.00351   0.66734   0.05192   0.00000  Uiso   1.00
C12    C     0.10359   0.69946   0.02335   0.00000  Uiso   1.00
C13    C     0.23665   0.74593   0.96232   0.00000  Uiso   1.00
C14    C     0.13333   0.68341   0.17093   0.00000  Uiso   1.00
C15    C     0.03308   0.55432   0.18286   0.00000  Uiso   1.00
C16    C     0.04778   0.47029   0.20895   0.00000  Uiso   1.00
C17    C     0.94480   0.35702   0.21599   0.00000  Uiso   1.00
C18    C     0.08904   0.76802   0.18876   0.00000  Uiso   1.00
C19    C     0.15081   0.86368   0.21982   0.00000  Uiso   1.00
C20    C     0.09495   0.93033   0.23182   0.00000  Uiso   1.00
C21    C     0.13465   0.69243   0.11793   0.00000  Uiso   1.00
C22    C     0.23477   0.72457   0.08944   0.00000  Uiso   1.00
C23    C     0.21733   0.72761   0.04181   0.00000  Uiso   1.00
H24    H     0.83592   0.60980   0.12268   0.00000  Uiso   1.00
H25    H     0.72867   0.39134   0.15718   0.00000  Uiso   1.00
H26    H     0.83169   0.78468   0.16803   0.00000  Uiso   1.00
H27    H     0.91564   0.64558   0.03767   0.00000  Uiso   1.00
H28    H     0.65983   0.16155   0.20356   0.00000  Uiso   1.00
H29    H     0.87707   0.99096   0.22644   0.00000  Uiso   1.00
H30    H     0.05410   0.69765   0.95156   0.00000  Uiso   1.00
H31    H     0.22173   0.70529   0.18527   0.00000  Uiso   1.00
H32    H     0.13565   0.49206   0.22320   0.00000  Uiso   1.00
H33    H     0.23867   0.88541   0.23406   0.00000  Uiso   1.00
H34    H     0.32262   0.74631   0.10370   0.00000  Uiso   1.00
H35    H     0.99015   0.24330   0.25716   0.00000  Uiso   1.00
H36    H     0.20739   0.07272   0.28004   0.00000  Uiso   1.00
H37    H     0.38442   0.77940   0.00515   0.00000  Uiso   1.00
O38    O     0.76140   0.06045   0.25420   0.00000  Uiso   1.00
O39    O     0.04642   0.14862   0.28421   0.00000  Uiso   1.00
O40    O     0.27867   0.76379   0.92356   0.00000  Uiso   1.00
N41    N     0.74939   0.21004   0.21096   0.00000  Uiso   1.00
N42    N     0.95248   0.98548   0.23236   0.00000  Uiso   1.00
N43    N     0.11800   0.71129   0.97536   0.00000  Uiso   1.00
N44    N     0.92713   0.25403   0.23980   0.00000  Uiso   1.00
N45    N     0.13023   0.02947   0.26120   0.00000  Uiso   1.00
N46    N     0.29574   0.75528   0.00420   0.00000  Uiso   1.00
C47    C     0.36833   0.29264   0.80368   0.00000  Uiso   1.00
C48    C     0.47379   0.39333   0.83110   0.00000  Uiso   1.00
C49    C     0.58695   0.40347   0.83810   0.00000  Uiso   1.00
C50    C     0.67113   0.50220   0.86420   0.00000  Uiso   1.00
C51    C     0.83913   0.64551   0.90400   0.00000  Uiso   1.00
C52    C     0.26008   0.23559   0.83701   0.00000  Uiso   1.00
C53    C     0.19356   0.11310   0.84896   0.00000  Uiso   1.00
C54    C     0.09783   0.07904   0.88003   0.00000  Uiso   1.00
C55    C     0.93398   0.97744   0.92897   0.00000  Uiso   1.00
C56    C     0.33567   0.35678   0.76618   0.00000  Uiso   1.00
C57    C     0.33266   0.33618   0.71858   0.00000  Uiso   1.00
C58    C     0.30054   0.40414   0.69002   0.00000  Uiso   1.00
C59    C     0.25407   0.49071   0.62898   0.00000  Uiso   1.00
C60    C     0.31659   0.44993   0.83759   0.00000  Uiso   1.00
C61    C     0.44568   0.47876   0.84952   0.00000  Uiso   1.00
C62    C     0.52971   0.57750   0.87562   0.00000  Uiso   1.00
C63    C     0.64298   0.58779   0.88265   0.00000  Uiso   1.00
C64    C     0.23198   0.32101   0.85543   0.00000  Uiso   1.00
C65    C     0.13632   0.28712   0.88648   0.00000  Uiso   1.00
C66    C     0.06967   0.16462   0.89849   0.00000  Uiso   1.00
C67    C     0.30757   0.44222   0.78460   0.00000  Uiso   1.00
C68    C     0.27543   0.51021   0.75610   0.00000  Uiso   1.00
C69    C     0.27239   0.48972   0.70847   0.00000  Uiso   1.00
H70    H     0.39020   0.22612   0.78934   0.00000  Uiso   1.00
H71    H     0.60866   0.33733   0.82384   0.00000  Uiso   1.00
H72    H     0.21532   0.04701   0.83470   0.00000  Uiso   1.00
H73    H     0.35442   0.27006   0.70434   0.00000  Uiso   1.00
H74    H     0.83845   0.49828   0.87023   0.00000  Uiso   1.00
H75    H     0.00904   0.88611   0.89311   0.00000  Uiso   1.00
H76    H     0.30235   0.35645   0.61822   0.00000  Uiso   1.00
H77    H     0.29471   0.51644   0.85194   0.00000  Uiso   1.00
H78    H     0.50794   0.64359   0.88987   0.00000  Uiso   1.00
H79    H     0.11459   0.35326   0.90073   0.00000  Uiso   1.00
H80    H     0.25369   0.57631   0.77037   0.00000  Uiso   1.00
H81    H     0.75670   0.74685   0.92382   0.00000  Uiso   1.00
H82    H     0.92728   0.13467   0.94670   0.00000  Uiso   1.00
H83    H     0.22060   0.60502   0.67182   0.00000  Uiso   1.00
O84    O     0.93955   0.70095   0.92086   0.00000  Uiso   1.00
O85    O     0.85138   0.89780   0.95088   0.00000  Uiso   1.00
O86    O     0.23621   0.51488   0.59023   0.00000  Uiso   1.00
N87    N     0.78996   0.53935   0.87763   0.00000  Uiso   1.00
N88    N     0.01452   0.96701   0.89903   0.00000  Uiso   1.00
N89    N     0.28871   0.40671   0.64203   0.00000  Uiso   1.00
N90    N     0.74597   0.67310   0.90647   0.00000  Uiso   1.00
N91    N     0.97053   0.10076   0.92787   0.00000  Uiso   1.00
N92    N     0.24472   0.54046   0.67087   0.00000  Uiso   1.00
C93    C     0.70736   0.07569   0.47035   0.00000  Uiso   1.00
C94    C     0.60667   0.08046   0.49777   0.00000  Uiso   1.00
C95    C     0.59653   0.18348   0.50477   0.00000  Uiso   1.00
C96    C     0.49780   0.16894   0.53087   0.00000  Uiso   1.00
C97    C     0.35449   0.19362   0.57066   0.00000  Uiso   1.00
C98    C     0.76441   0.02449   0.50367   0.00000  Uiso   1.00
C99    C     0.88690   0.08045   0.51563   0.00000  Uiso   1.00
C100   C     0.92096   0.01879   0.54670   0.00000  Uiso   1.00
C101   C     0.02256   0.95654   0.59564   0.00000  Uiso   1.00
C102   C     0.64322   0.97889   0.43285   0.00000  Uiso   1.00
C103   C     0.66382   0.99649   0.38525   0.00000  Uiso   1.00
C104   C     0.59586   0.89641   0.35669   0.00000  Uiso   1.00
C105   C     0.50929   0.76335   0.29565   0.00000  Uiso   1.00
C106   C     0.55007   0.86667   0.50426   0.00000  Uiso   1.00
C107   C     0.52124   0.96692   0.51619   0.00000  Uiso   1.00
C108   C     0.42250   0.95222   0.54229   0.00000  Uiso   1.00
C109   C     0.41221   0.05520   0.54932   0.00000  Uiso   1.00
C110   C     0.67899   0.91096   0.52210   0.00000  Uiso   1.00
C111   C     0.71288   0.84919   0.55315   0.00000  Uiso   1.00
C112   C     0.83538   0.90505   0.56515   0.00000  Uiso   1.00
C113   C     0.55778   0.86535   0.45127   0.00000  Uiso   1.00
C114   C     0.48979   0.76523   0.42277   0.00000  Uiso   1.00
C115   C     0.51028   0.78267   0.37514   0.00000  Uiso   1.00
H116   H     0.77388   0.16408   0.45601   0.00000  Uiso   1.00
H117   H     0.66267   0.27133   0.49051   0.00000  Uiso   1.00
H118   H     0.95299   0.16831   0.50137   0.00000  Uiso   1.00
H119   H     0.72994   0.08436   0.37101   0.00000  Uiso   1.00
H120   H     0.50172   0.34017   0.53690   0.00000  Uiso   1.00
H121   H     0.11389   0.12293   0.55978   0.00000  Uiso   1.00
H122   H     0.64355   0.94590   0.28489   0.00000  Uiso   1.00
H123   H     0.48356   0.77827   0.51860   0.00000  Uiso   1.00
H124   H     0.35641   0.86435   0.55654   0.00000  Uiso   1.00
H125   H     0.64674   0.76133   0.56740   0.00000  Uiso   1.00
H126   H     0.42369   0.67738   0.43704   0.00000  Uiso   1.00
H127   H     0.25315   0.00985   0.59049   0.00000  Uiso   1.00
H128   H     0.86533   0.79261   0.61337   0.00000  Uiso   1.00
H129   H     0.39498   0.61558   0.33848   0.00000  Uiso   1.00
O130   O     0.29905   0.23860   0.58753   0.00000  Uiso   1.00
O131   O     0.10220   0.95358   0.61754   0.00000  Uiso   1.00
O132   O     0.48512   0.72133   0.25690   0.00000  Uiso   1.00
N133   N     0.46065   0.25061   0.54429   0.00000  Uiso   1.00
N134   N     0.03299   0.04752   0.56569   0.00000  Uiso   1.00
N135   N     0.59329   0.88200   0.30870   0.00000  Uiso   1.00
N136   N     0.32690   0.07287   0.57313   0.00000  Uiso   1.00
N137   N     0.89924   0.86977   0.59453   0.00000  Uiso   1.00
N138   N     0.45954   0.70426   0.33753   0.00000  Uiso   1.00
C139   C     0.63167   0.92431   0.86299   0.00000  Uiso   1.00
C140   C     0.52621   0.91954   0.83556   0.00000  Uiso   1.00
C141   C     0.41305   0.81652   0.82857   0.00000  Uiso   1.00
C142   C     0.32887   0.83106   0.80246   0.00000  Uiso   1.00
C143   C     0.16087   0.80638   0.76267   0.00000  Uiso   1.00
C144   C     0.73992   0.97551   0.82966   0.00000  Uiso   1.00
C145   C     0.80644   0.91955   0.81770   0.00000  Uiso   1.00
C146   C     0.90217   0.98121   0.78663   0.00000  Uiso   1.00
C147   C     0.06602   0.04346   0.73770   0.00000  Uiso   1.00
C148   C     0.66433   0.02111   0.90049   0.00000  Uiso   1.00
C149   C     0.66734   0.00351   0.94808   0.00000  Uiso   1.00
C150   C     0.69946   0.10359   0.97665   0.00000  Uiso   1.00
C151   C     0.74593   0.23665   0.03768   0.00000  Uiso   1.00
C152   C     0.68341   0.13333   0.82907   0.00000  Uiso   1.00
C153   C     0.55432   0.03308   0.81714   0.00000  Uiso   1.00
C154   C     0.47029   0.04778   0.79105   0.00000  Uiso   1.00
C155   C     0.35702   0.94480   0.78401   0.00000  Uiso   1.00
C156   C     0.76802   0.08904   0.81124   0.00000  Uiso   1.00
C157   C     0.86368   0.15081   0.78018   0.00000  Uiso   1.00
C158   C     0.93033   0.09495   0.76818   0.00000  Uiso   1.00
C159   C     0.69243   0.13465   0.88207   0.00000  Uiso   1.00
C160   C     0.72457   0.23477   0.91056   0.00000  Uiso   1.00
C161   C     0.72761   0.21733   0.95819   0.00000  Uiso   1.00
H162   H     0.60980   0.83592   0.87732   0.00000  Uiso   1.00
H163   H     0.39134   0.72867   0.84282   0.00000  Uiso   1.00
H164   H     0.78468   0.83169   0.83197   0.00000  Uiso   1.00
H165   H     0.64558   0.91564   0.96233   0.00000  Uiso   1.00
H166   H     0.16155   0.65983   0.79644   0.00000  Uiso   1.00
H167   H     0.99096   0.87707   0.77356   0.00000  Uiso   1.00
H168   H     0.69765   0.05410   0.04844   0.00000  Uiso   1.00
H169   H     0.70529   0.22173   0.81473   0.00000  Uiso   1.00
H170   H     0.49206   0.13565   0.77680   0.00000  Uiso   1.00
H171   H     0.88541   0.23867   0.76594   0.00000  Uiso   1.00
H172   H     0.74631   0.32262   0.89630   0.00000  Uiso   1.00
H173   H     0.24330   0.99015   0.74284   0.00000  Uiso   1.00
H174   H     0.07272   0.20739   0.71996   0.00000  Uiso   1.00
H175   H     0.77940   0.38442   0.99485   0.00000  Uiso   1.00
O176   O     0.06045   0.76140   0.74580   0.00000  Uiso   1.00
O177   O     0.14862   0.04642   0.71579   0.00000  Uiso   1.00
O178   O     0.76379   0.27867   0.07644   0.00000  Uiso   1.00
N179   N     0.21004   0.74939   0.78904   0.00000  Uiso   1.00
N180   N     0.98548   0.95248   0.76764   0.00000  Uiso   1.00
N181   N     0.71129   0.11800   0.02464   0.00000  Uiso   1.00
N182   N     0.25403   0.92713   0.76020   0.00000  Uiso   1.00
N183   N     0.02947   0.13023   0.73880   0.00000  Uiso   1.00
N184   N     0.75528   0.29574   0.99580   0.00000  Uiso   1.00
C185   C     0.29264   0.36833   0.19632   0.00000  Uiso   1.00
C186   C     0.39333   0.47379   0.16890   0.00000  Uiso   1.00
C187   C     0.40347   0.58695   0.16190   0.00000  Uiso   1.00
C188   C     0.50220   0.67113   0.13580   0.00000  Uiso   1.00
C189   C     0.64551   0.83913   0.09600   0.00000  Uiso   1.00
C190   C     0.23559   0.26008   0.16299   0.00000  Uiso   1.00
C191   C     0.11310   0.19356   0.15104   0.00000  Uiso   1.00
C192   C     0.07904   0.09783   0.11997   0.00000  Uiso   1.00
C193   C     0.97744   0.93398   0.07103   0.00000  Uiso   1.00
C194   C     0.35678   0.33567   0.23382   0.00000  Uiso   1.00
C195   C     0.33618   0.33266   0.28142   0.00000  Uiso   1.00
C196   C     0.40414   0.30054   0.30998   0.00000  Uiso   1.00
C197   C     0.49071   0.25407   0.37102   0.00000  Uiso   1.00
C198   C     0.44993   0.31659   0.16241   0.00000  Uiso   1.00
C199   C     0.47876   0.44568   0.15048   0.00000  Uiso   1.00
C200   C     0.57750   0.52971   0.12438   0.00000  Uiso   1.00
C201   C     0.58779   0.64298   0.11735   0.00000  Uiso   1.00
C202   C     0.32101   0.23198   0.14457   0.00000  Uiso   1.00
C203   C     0.28712   0.13632   0.11352   0.00000  Uiso   1.00
C204   C     0.16462   0.06967   0.10151   0.00000  Uiso   1.00
C205   C     0.44222   0.30757   0.21540   0.00000  Uiso   1.00
C206   C     0.51021   0.27543   0.24390   0.00000  Uiso   1.00
C207   C     0.48972   0.27239   0.29153   0.00000  Uiso   1.00
H208   H     0.22612   0.39020   0.21066   0.00000  Uiso   1.00
H209   H     0.33733   0.60866   0.17616   0.00000  Uiso   1.00
H210   H     0.04701   0.21532   0.16530   0.00000  Uiso   1.00
H211   H     0.27006   0.35442   0.29566   0.00000  Uiso   1.00
H212   H     0.49828   0.83845   0.12977   0.00000  Uiso   1.00
H213   H     0.88611   0.00904   0.10689   0.00000  Uiso   1.00
H214   H     0.35645   0.30235   0.38178   0.00000  Uiso   1.00
H215   H     0.51644   0.29471   0.14806   0.00000  Uiso   1.00
H216   H     0.64359   0.50794   0.11013   0.00000  Uiso   1.00
H217   H     0.35326   0.11459   0.09927   0.00000  Uiso   1.00
H218   H     0.57631   0.25369   0.22963   0.00000  Uiso   1.00
H219   H     0.74685   0.75670   0.07618   0.00000  Uiso   1.00
H220   H     0.13467   0.92728   0.05330   0.00000  Uiso   1.00
H221   H     0.60502   0.22060   0.32818   0.00000  Uiso   1.00
O222   O     0.70095   0.93955   0.07914   0.00000  Uiso   1.00
O223   O     0.89780   0.85138   0.04912   0.00000  Uiso   1.00
O224   O     0.51488   0.23621   0.40977   0.00000  Uiso   1.00
N225   N     0.53935   0.78996   0.12237   0.00000  Uiso   1.00
N226   N     0.96701   0.01452   0.10097   0.00000  Uiso   1.00
N227   N     0.40671   0.28871   0.35797   0.00000  Uiso   1.00
N228   N     0.67310   0.74597   0.09353   0.00000  Uiso   1.00
N229   N     0.10076   0.97053   0.07213   0.00000  Uiso   1.00
N230   N     0.54046   0.24472   0.32913   0.00000  Uiso   1.00
C231   C     0.07569   0.70736   0.52965   0.00000  Uiso   1.00
C232   C     0.08046   0.60667   0.50223   0.00000  Uiso   1.00
C233   C     0.18348   0.59653   0.49523   0.00000  Uiso   1.00
C234   C     0.16894   0.49780   0.46913   0.00000  Uiso   1.00
C235   C     0.19362   0.35449   0.42934   0.00000  Uiso   1.00
C236   C     0.02449   0.76441   0.49633   0.00000  Uiso   1.00
C237   C     0.08045   0.88690   0.48437   0.00000  Uiso   1.00
C238   C     0.01879   0.92096   0.45330   0.00000  Uiso   1.00
C239   C     0.95654   0.02256   0.40436   0.00000  Uiso   1.00
C240   C     0.97889   0.64322   0.56715   0.00000  Uiso   1.00
C241   C     0.99649   0.66382   0.61475   0.00000  Uiso   1.00
C242   C     0.89641   0.59586   0.64331   0.00000  Uiso   1.00
C243   C     0.76335   0.50929   0.70435   0.00000  Uiso   1.00
C244   C     0.86667   0.55007   0.49574   0.00000  Uiso   1.00
C245   C     0.96692   0.52124   0.48381   0.00000  Uiso   1.00
C246   C     0.95222   0.42250   0.45771   0.00000  Uiso   1.00
C247   C     0.05520   0.41221   0.45068   0.00000  Uiso   1.00
C248   C     0.91096   0.67899   0.47790   0.00000  Uiso   1.00
C249   C     0.84919   0.71288   0.44685   0.00000  Uiso   1.00
C250   C     0.90505   0.83538   0.43485   0.00000  Uiso   1.00
C251   C     0.86535   0.55778   0.54873   0.00000  Uiso   1.00
C252   C     0.76523   0.48979   0.57723   0.00000  Uiso   1.00
C253   C     0.78267   0.51028   0.62486   0.00000  Uiso   1.00
H254   H     0.16408   0.77388   0.54399   0.00000  Uiso   1.00
H255   H     0.27133   0.66267   0.50949   0.00000  Uiso   1.00
H256   H     0.16831   0.95299   0.49863   0.00000  Uiso   1.00
H257   H     0.08436   0.72994   0.62899   0.00000  Uiso   1.00
H258   H     0.34017   0.50172   0.46310   0.00000  Uiso   1.00
H259   H     0.12293   0.11389   0.44022   0.00000  Uiso   1.00
H260   H     0.94590   0.64355   0.71511   0.00000  Uiso   1.00
H261   H     0.77827   0.48356   0.48140   0.00000  Uiso   1.00
H262   H     0.86435   0.35641   0.44346   0.00000  Uiso   1.00
H263   H     0.76133   0.64674   0.43260   0.00000  Uiso   1.00
H264   H     0.67738   0.42369   0.56296   0.00000  Uiso   1.00
H265   H     0.00985   0.25315   0.40951   0.00000  Uiso   1.00
H266   H     0.79261   0.86533   0.38663   0.00000  Uiso   1.00
H267   H     0.61558   0.39498   0.66152   0.00000  Uiso   1.00
O268   O     0.23860   0.29905   0.41247   0.00000  Uiso   1.00
O269   O     0.95358   0.10220   0.38246   0.00000  Uiso   1.00
O270   O     0.72133   0.48512   0.74310   0.00000  Uiso   1.00
N271   N     0.25061   0.46065   0.45571   0.00000  Uiso   1.00
N272   N     0.04752   0.03299   0.43431   0.00000  Uiso   1.00
N273   N     0.88200   0.59329   0.69130   0.00000  Uiso   1.00
N274   N     0.07287   0.32690   0.42687   0.00000  Uiso   1.00
N275   N     0.86977   0.89924   0.40547   0.00000  Uiso   1.00
N276   N     0.70426   0.45954   0.66247   0.00000  Uiso   1.00
