data_job_06036
_audit_creation_date              2018-12-19
_audit_creation_method            'Materials Studio'
_symmetry_space_group_name_H-M    'P1'
_symmetry_Int_Tables_number       1
_symmetry_cell_setting            triclinic
loop_
_symmetry_equiv_pos_as_xyz
  x,y,z
_cell_length_a                    14.8127
_cell_length_b                    14.8130
_cell_length_c                    14.8133
_cell_angle_alpha                 93.0401
_cell_angle_beta                  93.0424
_cell_angle_gamma                 93.0448
loop_
_atom_site_label
_atom_site_type_symbol
_atom_site_fract_x
_atom_site_fract_y
_atom_site_fract_z
_atom_site_U_iso_or_equiv
_atom_site_adp_type
_atom_site_occupancy
C1     C     0.98155   0.35105   0.71088   0.00000  Uiso   1.00
C2     C     0.89118   0.29740   0.69199   0.00000  Uiso   1.00
C3     C     0.80645   0.32959   0.70593   0.00000  Uiso   1.00
C4     C     0.73201   0.26993   0.68445   0.00000  Uiso   1.00
C5     C     0.59017   0.20010   0.66037   0.00000  Uiso   1.00
C6     C     0.03723   0.29634   0.77559   0.00000  Uiso   1.00
C7     C     0.07531   0.32766   0.85982   0.00000  Uiso   1.00
C8     C     0.12382   0.26710   0.90872   0.00000  Uiso   1.00
C9     C     0.20877   0.19565   0.01440   0.00000  Uiso   1.00
C10    C     0.02890   0.34755   0.62193   0.00000  Uiso   1.00
C11    C     0.06000   0.42192   0.57696   0.00000  Uiso   1.00
C12    C     0.10151   0.40448   0.49650   0.00000  Uiso   1.00
C13    C     0.17353   0.41253   0.36360   0.00000  Uiso   1.00
C14    C     0.00002   0.18783   0.64795   0.00000  Uiso   1.00
C15    C     0.90121   0.20874   0.65781   0.00000  Uiso   1.00
C16    C     0.82688   0.14901   0.63630   0.00000  Uiso   1.00
C17    C     0.74206   0.18112   0.65021   0.00000  Uiso   1.00
C18    C     0.04726   0.20769   0.74142   0.00000  Uiso   1.00
C19    C     0.09573   0.14707   0.79020   0.00000  Uiso   1.00
C20    C     0.13387   0.17829   0.87448   0.00000  Uiso   1.00
C21    C     0.03893   0.25889   0.58775   0.00000  Uiso   1.00
C22    C     0.08042   0.24133   0.50734   0.00000  Uiso   1.00
C23    C     0.11156   0.31566   0.46226   0.00000  Uiso   1.00
H24    H     0.97375   0.42006   0.73749   0.00000  Uiso   1.00
H25    H     0.79872   0.39821   0.73239   0.00000  Uiso   1.00
H26    H     0.06754   0.39627   0.88625   0.00000  Uiso   1.00
H27    H     0.05222   0.49051   0.60344   0.00000  Uiso   1.00
H28    H     0.60910   0.33486   0.71169   0.00000  Uiso   1.00
H29    H     0.17594   0.33079   0.03610   0.00000  Uiso   1.00
H30    H     0.14365   0.52952   0.43974   0.00000  Uiso   1.00
H31    H     0.00783   0.11880   0.62134   0.00000  Uiso   1.00
H32    H     0.83466   0.08041   0.60985   0.00000  Uiso   1.00
H33    H     0.10348   0.07848   0.76372   0.00000  Uiso   1.00
H34    H     0.08816   0.17272   0.48091   0.00000  Uiso   1.00
H35    H     0.63827   0.07693   0.61224   0.00000  Uiso   1.00
H36    H     0.20512   0.07286   0.93665   0.00000  Uiso   1.00
H37    H     0.17282   0.27159   0.34029   0.00000  Uiso   1.00
O38    O     0.50916   0.18606   0.65654   0.00000  Uiso   1.00
O39    O     0.25285   0.18073   0.08214   0.00000  Uiso   1.00
O40    O     0.21048   0.44146   0.29973   0.00000  Uiso   1.00
N41    N     0.63972   0.27943   0.68984   0.00000  Uiso   1.00
N42    N     0.16968   0.27562   0.99315   0.00000  Uiso   1.00
N43    N     0.13951   0.46142   0.43562   0.00000  Uiso   1.00
N44    N     0.65542   0.14064   0.63633   0.00000  Uiso   1.00
N45    N     0.18538   0.13683   0.93964   0.00000  Uiso   1.00
N46    N     0.15520   0.32263   0.38211   0.00000  Uiso   1.00
C47    C     0.71087   0.98153   0.35105   0.00000  Uiso   1.00
C48    C     0.69198   0.89116   0.29740   0.00000  Uiso   1.00
C49    C     0.70592   0.80644   0.32961   0.00000  Uiso   1.00
C50    C     0.68444   0.73200   0.26995   0.00000  Uiso   1.00
C51    C     0.66035   0.59016   0.20012   0.00000  Uiso   1.00
C52    C     0.77559   0.03721   0.29634   0.00000  Uiso   1.00
C53    C     0.85982   0.07529   0.32766   0.00000  Uiso   1.00
C54    C     0.90872   0.12380   0.26711   0.00000  Uiso   1.00
C55    C     0.01441   0.20876   0.19566   0.00000  Uiso   1.00
C56    C     0.62192   0.02887   0.34755   0.00000  Uiso   1.00
C57    C     0.57696   0.05997   0.42191   0.00000  Uiso   1.00
C58    C     0.49649   0.10148   0.40447   0.00000  Uiso   1.00
C59    C     0.36359   0.17350   0.41252   0.00000  Uiso   1.00
C60    C     0.64794  -0.00000   0.18783   0.00000  Uiso   1.00
C61    C     0.65780   0.90120   0.20875   0.00000  Uiso   1.00
C62    C     0.63629   0.82687   0.14902   0.00000  Uiso   1.00
C63    C     0.65019   0.74205   0.18113   0.00000  Uiso   1.00
C64    C     0.74141   0.04724   0.20769   0.00000  Uiso   1.00
C65    C     0.79019   0.09572   0.14708   0.00000  Uiso   1.00
C66    C     0.87448   0.13385   0.17829   0.00000  Uiso   1.00
C67    C     0.58774   0.03890   0.25889   0.00000  Uiso   1.00
C68    C     0.50733   0.08039   0.24133   0.00000  Uiso   1.00
C69    C     0.46225   0.11154   0.31566   0.00000  Uiso   1.00
H70    H     0.73749   0.97372   0.42007   0.00000  Uiso   1.00
H71    H     0.73238   0.79870   0.39822   0.00000  Uiso   1.00
H72    H     0.88625   0.06752   0.39627   0.00000  Uiso   1.00
H73    H     0.60343   0.05219   0.49051   0.00000  Uiso   1.00
H74    H     0.71168   0.60908   0.33488   0.00000  Uiso   1.00
H75    H     0.03611   0.17592   0.33079   0.00000  Uiso   1.00
H76    H     0.43973   0.14361   0.52951   0.00000  Uiso   1.00
H77    H     0.62133   0.00781   0.11881   0.00000  Uiso   1.00
H78    H     0.60984   0.83465   0.08042   0.00000  Uiso   1.00
H79    H     0.76372   0.10347   0.07848   0.00000  Uiso   1.00
H80    H     0.48090   0.08815   0.17272   0.00000  Uiso   1.00
H81    H     0.61222   0.63826   0.07695   0.00000  Uiso   1.00
H82    H     0.93666   0.20511   0.07286   0.00000  Uiso   1.00
H83    H     0.34027   0.17279   0.27158   0.00000  Uiso   1.00
O84    O     0.65652   0.50915   0.18609   0.00000  Uiso   1.00
O85    O     0.08216   0.25284   0.18074   0.00000  Uiso   1.00
O86    O     0.29972   0.21044   0.44145   0.00000  Uiso   1.00
N87    N     0.68983   0.63971   0.27945   0.00000  Uiso   1.00
N88    N     0.99316   0.16966   0.27563   0.00000  Uiso   1.00
N89    N     0.43561   0.13947   0.46141   0.00000  Uiso   1.00
N90    N     0.63631   0.65541   0.14066   0.00000  Uiso   1.00
N91    N     0.93965   0.18536   0.13683   0.00000  Uiso   1.00
N92    N     0.38209   0.15517   0.32262   0.00000  Uiso   1.00
C93    C     0.35104   0.71087   0.98151   0.00000  Uiso   1.00
C94    C     0.29739   0.69199   0.89115   0.00000  Uiso   1.00
C95    C     0.32959   0.70593   0.80643   0.00000  Uiso   1.00
C96    C     0.26992   0.68445   0.73199   0.00000  Uiso   1.00
C97    C     0.20009   0.66037   0.59015   0.00000  Uiso   1.00
C98    C     0.29633   0.77559   0.03719   0.00000  Uiso   1.00
C99    C     0.32765   0.85982   0.07526   0.00000  Uiso   1.00
C100   C     0.26710   0.90871   0.12377   0.00000  Uiso   1.00
C101   C     0.19565   0.01440   0.20872   0.00000  Uiso   1.00
C102   C     0.34753   0.62193   0.02886   0.00000  Uiso   1.00
C103   C     0.42190   0.57696   0.05996   0.00000  Uiso   1.00
C104   C     0.40446   0.49649   0.10148   0.00000  Uiso   1.00
C105   C     0.41251   0.36359   0.17350   0.00000  Uiso   1.00
C106   C     0.18781   0.64794   0.99998   0.00000  Uiso   1.00
C107   C     0.20873   0.65780   0.90119   0.00000  Uiso   1.00
C108   C     0.14900   0.63630   0.82686   0.00000  Uiso   1.00
C109   C     0.18111   0.65020   0.74204   0.00000  Uiso   1.00
C110   C     0.20768   0.74141   0.04722   0.00000  Uiso   1.00
C111   C     0.14706   0.79019   0.09569   0.00000  Uiso   1.00
C112   C     0.17828   0.87447   0.13383   0.00000  Uiso   1.00
C113   C     0.25888   0.58774   0.03889   0.00000  Uiso   1.00
C114   C     0.24131   0.50733   0.08038   0.00000  Uiso   1.00
C115   C     0.31564   0.46225   0.11153   0.00000  Uiso   1.00
H116   H     0.42006   0.73749   0.97371   0.00000  Uiso   1.00
H117   H     0.39820   0.73239   0.79869   0.00000  Uiso   1.00
H118   H     0.39627   0.88625   0.06750   0.00000  Uiso   1.00
H119   H     0.49050   0.60344   0.05218   0.00000  Uiso   1.00
H120   H     0.33486   0.71169   0.60908   0.00000  Uiso   1.00
H121   H     0.33079   0.03610   0.17589   0.00000  Uiso   1.00
H122   H     0.52951   0.43973   0.14361   0.00000  Uiso   1.00
H123   H     0.11878   0.62132   0.00779   0.00000  Uiso   1.00
H124   H     0.08039   0.60984   0.83464   0.00000  Uiso   1.00
H125   H     0.07846   0.76371   0.10345   0.00000  Uiso   1.00
H126   H     0.17270   0.48089   0.08813   0.00000  Uiso   1.00
H127   H     0.07691   0.61223   0.63826   0.00000  Uiso   1.00
H128   H     0.07285   0.93664   0.20507   0.00000  Uiso   1.00
H129   H     0.27156   0.34027   0.17278   0.00000  Uiso   1.00
O130   O     0.18606   0.65654   0.50915   0.00000  Uiso   1.00
O131   O     0.18073   0.08214   0.25280   0.00000  Uiso   1.00
O132   O     0.44144   0.29972   0.21044   0.00000  Uiso   1.00
N133   N     0.27943   0.68984   0.63971   0.00000  Uiso   1.00
N134   N     0.27562   0.99315   0.16963   0.00000  Uiso   1.00
N135   N     0.46140   0.43561   0.13947   0.00000  Uiso   1.00
N136   N     0.14063   0.63632   0.65541   0.00000  Uiso   1.00
N137   N     0.13682   0.93963   0.18533   0.00000  Uiso   1.00
N138   N     0.32260   0.38209   0.15517   0.00000  Uiso   1.00
C139   C     0.01845   0.64895   0.28912   0.00000  Uiso   1.00
C140   C     0.10882   0.70260   0.30801   0.00000  Uiso   1.00
C141   C     0.19355   0.67041   0.29407   0.00000  Uiso   1.00
C142   C     0.26799   0.73007   0.31555   0.00000  Uiso   1.00
C143   C     0.40983   0.79990   0.33963   0.00000  Uiso   1.00
C144   C     0.96277   0.70366   0.22441   0.00000  Uiso   1.00
C145   C     0.92469   0.67234   0.14018   0.00000  Uiso   1.00
C146   C     0.87618   0.73290   0.09128   0.00000  Uiso   1.00
C147   C     0.79123   0.80435   0.98560   0.00000  Uiso   1.00
C148   C     0.97110   0.65245   0.37807   0.00000  Uiso   1.00
C149   C     0.94000   0.57808   0.42304   0.00000  Uiso   1.00
C150   C     0.89849   0.59552   0.50350   0.00000  Uiso   1.00
C151   C     0.82647   0.58747   0.63640   0.00000  Uiso   1.00
C152   C     0.99998   0.81217   0.35205   0.00000  Uiso   1.00
C153   C     0.09879   0.79126   0.34219   0.00000  Uiso   1.00
C154   C     0.17312   0.85099   0.36370   0.00000  Uiso   1.00
C155   C     0.25794   0.81888   0.34979   0.00000  Uiso   1.00
C156   C     0.95274   0.79231   0.25858   0.00000  Uiso   1.00
C157   C     0.90427   0.85292   0.20980   0.00000  Uiso   1.00
C158   C     0.86613   0.82171   0.12552   0.00000  Uiso   1.00
C159   C     0.96107   0.74111   0.41225   0.00000  Uiso   1.00
C160   C     0.91958   0.75867   0.49266   0.00000  Uiso   1.00
C161   C     0.88844   0.68434   0.53774   0.00000  Uiso   1.00
H162   H     0.02625   0.57994   0.26251   0.00000  Uiso   1.00
H163   H     0.20128   0.60179   0.26761   0.00000  Uiso   1.00
H164   H     0.93246   0.60373   0.11375   0.00000  Uiso   1.00
H165   H     0.94778   0.50949   0.39656   0.00000  Uiso   1.00
H166   H     0.39090   0.66514   0.28831   0.00000  Uiso   1.00
H167   H     0.82406   0.66921   0.96390   0.00000  Uiso   1.00
H168   H     0.85635   0.47048   0.56026   0.00000  Uiso   1.00
H169   H     0.99217   0.88120   0.37866   0.00000  Uiso   1.00
H170   H     0.16534   0.91959   0.39015   0.00000  Uiso   1.00
H171   H     0.89652   0.92152   0.23628   0.00000  Uiso   1.00
H172   H     0.91184   0.82728   0.51909   0.00000  Uiso   1.00
H173   H     0.36173   0.92307   0.38776   0.00000  Uiso   1.00
H174   H     0.79488   0.92714   0.06335   0.00000  Uiso   1.00
H175   H     0.82718   0.72841   0.65971   0.00000  Uiso   1.00
O176   O     0.49084   0.81393   0.34346   0.00000  Uiso   1.00
O177   O     0.74715   0.81927   0.91786   0.00000  Uiso   1.00
O178   O     0.78952   0.55854   0.70027   0.00000  Uiso   1.00
N179   N     0.36028   0.72057   0.31016   0.00000  Uiso   1.00
N180   N     0.83032   0.72438   0.00685   0.00000  Uiso   1.00
N181   N     0.86049   0.53858   0.56438   0.00000  Uiso   1.00
N182   N     0.34458   0.85936   0.36367   0.00000  Uiso   1.00
N183   N     0.81462   0.86317   0.06036   0.00000  Uiso   1.00
N184   N     0.84480   0.67737   0.61789   0.00000  Uiso   1.00
C185   C     0.28913   0.01847   0.64895   0.00000  Uiso   1.00
C186   C     0.30802   0.10884   0.70260   0.00000  Uiso   1.00
C187   C     0.29408   0.19356   0.67039   0.00000  Uiso   1.00
C188   C     0.31556   0.26800   0.73005   0.00000  Uiso   1.00
C189   C     0.33965   0.40984   0.79988   0.00000  Uiso   1.00
C190   C     0.22441   0.96279   0.70366   0.00000  Uiso   1.00
C191   C     0.14018   0.92471   0.67234   0.00000  Uiso   1.00
C192   C     0.09128   0.87620   0.73289   0.00000  Uiso   1.00
C193   C     0.98559   0.79124   0.80434   0.00000  Uiso   1.00
C194   C     0.37808   0.97113   0.65245   0.00000  Uiso   1.00
C195   C     0.42304   0.94003   0.57809   0.00000  Uiso   1.00
C196   C     0.50351   0.89851   0.59553   0.00000  Uiso   1.00
C197   C     0.63641   0.82650   0.58748   0.00000  Uiso   1.00
C198   C     0.35206   0.00000   0.81217   0.00000  Uiso   1.00
C199   C     0.34220   0.09880   0.79125   0.00000  Uiso   1.00
C200   C     0.36371   0.17313   0.85098   0.00000  Uiso   1.00
C201   C     0.34981   0.25795   0.81887   0.00000  Uiso   1.00
C202   C     0.25859   0.95276   0.79231   0.00000  Uiso   1.00
C203   C     0.20981   0.90428   0.85292   0.00000  Uiso   1.00
C204   C     0.12552   0.86615   0.82171   0.00000  Uiso   1.00
C205   C     0.41226   0.96110   0.74111   0.00000  Uiso   1.00
C206   C     0.49267   0.91961   0.75867   0.00000  Uiso   1.00
C207   C     0.53775   0.88846   0.68434   0.00000  Uiso   1.00
H208   H     0.26251   0.02628   0.57993   0.00000  Uiso   1.00
H209   H     0.26762   0.20130   0.60178   0.00000  Uiso   1.00
H210   H     0.11375   0.93248   0.60373   0.00000  Uiso   1.00
H211   H     0.39657   0.94781   0.50949   0.00000  Uiso   1.00
H212   H     0.28832   0.39092   0.66512   0.00000  Uiso   1.00
H213   H     0.96389   0.82408   0.66921   0.00000  Uiso   1.00
H214   H     0.56027   0.85639   0.47049   0.00000  Uiso   1.00
H215   H     0.37867   0.99219   0.88119   0.00000  Uiso   1.00
H216   H     0.39016   0.16535   0.91958   0.00000  Uiso   1.00
H217   H     0.23628   0.89653   0.92152   0.00000  Uiso   1.00
H218   H     0.51910   0.91185   0.82728   0.00000  Uiso   1.00
H219   H     0.38778   0.36174   0.92305   0.00000  Uiso   1.00
H220   H     0.06334   0.79489   0.92714   0.00000  Uiso   1.00
H221   H     0.65973   0.82721   0.72842   0.00000  Uiso   1.00
O222   O     0.34348   0.49085   0.81391   0.00000  Uiso   1.00
O223   O     0.91784   0.74716   0.81926   0.00000  Uiso   1.00
O224   O     0.70028   0.78956   0.55855   0.00000  Uiso   1.00
N225   N     0.31017   0.36029   0.72055   0.00000  Uiso   1.00
N226   N     0.00684   0.83034   0.72437   0.00000  Uiso   1.00
N227   N     0.56439   0.86053   0.53859   0.00000  Uiso   1.00
N228   N     0.36369   0.34459   0.85934   0.00000  Uiso   1.00
N229   N     0.06035   0.81464   0.86317   0.00000  Uiso   1.00
N230   N     0.61791   0.84482   0.67738   0.00000  Uiso   1.00
C231   C     0.64896   0.28913   0.01849   0.00000  Uiso   1.00
C232   C     0.70261   0.30801   0.10885   0.00000  Uiso   1.00
C233   C     0.67041   0.29407   0.19357   0.00000  Uiso   1.00
C234   C     0.73008   0.31555   0.26801   0.00000  Uiso   1.00
C235   C     0.79991   0.33963   0.40985   0.00000  Uiso   1.00
C236   C     0.70367   0.22441   0.96281   0.00000  Uiso   1.00
C237   C     0.67235   0.14018   0.92474   0.00000  Uiso   1.00
C238   C     0.73290   0.09129   0.87623   0.00000  Uiso   1.00
C239   C     0.80435   0.98560   0.79128   0.00000  Uiso   1.00
C240   C     0.65247   0.37807   0.97114   0.00000  Uiso   1.00
C241   C     0.57810   0.42304   0.94004   0.00000  Uiso   1.00
C242   C     0.59554   0.50351   0.89852   0.00000  Uiso   1.00
C243   C     0.58749   0.63641   0.82650   0.00000  Uiso   1.00
C244   C     0.81219   0.35206   0.00002   0.00000  Uiso   1.00
C245   C     0.79127   0.34220   0.09881   0.00000  Uiso   1.00
C246   C     0.85100   0.36370   0.17314   0.00000  Uiso   1.00
C247   C     0.81889   0.34980   0.25796   0.00000  Uiso   1.00
C248   C     0.79232   0.25859   0.95278   0.00000  Uiso   1.00
C249   C     0.85294   0.20981   0.90431   0.00000  Uiso   1.00
C250   C     0.82172   0.12553   0.86617   0.00000  Uiso   1.00
C251   C     0.74112   0.41226   0.96111   0.00000  Uiso   1.00
C252   C     0.75869   0.49267   0.91962   0.00000  Uiso   1.00
C253   C     0.68436   0.53775   0.88847   0.00000  Uiso   1.00
H254   H     0.57994   0.26251   0.02629   0.00000  Uiso   1.00
H255   H     0.60180   0.26761   0.20131   0.00000  Uiso   1.00
H256   H     0.60373   0.11375   0.93250   0.00000  Uiso   1.00
H257   H     0.50950   0.39656   0.94782   0.00000  Uiso   1.00
H258   H     0.66514   0.28831   0.39092   0.00000  Uiso   1.00
H259   H     0.66921   0.96390   0.82411   0.00000  Uiso   1.00
H260   H     0.47049   0.56027   0.85639   0.00000  Uiso   1.00
H261   H     0.88122   0.37868   0.99221   0.00000  Uiso   1.00
H262   H     0.91961   0.39016   0.16536   0.00000  Uiso   1.00
H263   H     0.92154   0.23629   0.89655   0.00000  Uiso   1.00
H264   H     0.82730   0.51910   0.91187   0.00000  Uiso   1.00
H265   H     0.92309   0.38777   0.36174   0.00000  Uiso   1.00
H266   H     0.92715   0.06336   0.79493   0.00000  Uiso   1.00
H267   H     0.72844   0.65973   0.82722   0.00000  Uiso   1.00
O268   O     0.81394   0.34346   0.49085   0.00000  Uiso   1.00
O269   O     0.81927   0.91786   0.74720   0.00000  Uiso   1.00
O270   O     0.55856   0.70028   0.78956   0.00000  Uiso   1.00
N271   N     0.72057   0.31016   0.36029   0.00000  Uiso   1.00
N272   N     0.72438   0.00685   0.83037   0.00000  Uiso   1.00
N273   N     0.53860   0.56439   0.86053   0.00000  Uiso   1.00
N274   N     0.85937   0.36368   0.34459   0.00000  Uiso   1.00
N275   N     0.86318   0.06037   0.81467   0.00000  Uiso   1.00
N276   N     0.67740   0.61791   0.84483   0.00000  Uiso   1.00
