data_job_04067
_audit_creation_date              2018-12-19
_audit_creation_method            'Materials Studio'
_symmetry_space_group_name_H-M    'P1'
_symmetry_Int_Tables_number       1
_symmetry_cell_setting            triclinic
loop_
_symmetry_equiv_pos_as_xyz
  x,y,z
_cell_length_a                    14.4981
_cell_length_b                    9.8385
_cell_length_c                    47.2983
_cell_angle_alpha                 90.0000
_cell_angle_beta                  90.0000
_cell_angle_gamma                 90.0000
loop_
_atom_site_label
_atom_site_type_symbol
_atom_site_fract_x
_atom_site_fract_y
_atom_site_fract_z
_atom_site_U_iso_or_equiv
_atom_site_adp_type
_atom_site_occupancy
C1     C     0.05275   0.36175   0.62142   0.00000  Uiso   1.00
C2     C     0.05009   0.51667   0.62086   0.00000  Uiso   1.00
C3     C     0.12634   0.60193   0.62095   0.00000  Uiso   1.00
C4     C     0.10940   0.74079   0.62038   0.00000  Uiso   1.00
C5     C     0.11896   0.97350   0.61962   0.00000  Uiso   1.00
C6     C     0.99589   0.31895   0.64704   0.00000  Uiso   1.00
C7     C     0.02658   0.23796   0.66915   0.00000  Uiso   1.00
C8     C     0.96400   0.21037   0.69062   0.00000  Uiso   1.00
C9     C     0.88941   0.13603   0.73050   0.00000  Uiso   1.00
C10    C     0.99870   0.31472   0.59555   0.00000  Uiso   1.00
C11    C     0.03173   0.23013   0.57437   0.00000  Uiso   1.00
C12    C     0.97151   0.19894   0.55248   0.00000  Uiso   1.00
C13    C     0.90127   0.11803   0.51241   0.00000  Uiso   1.00
C14    C     0.88705   0.45674   0.62024   0.00000  Uiso   1.00
C15    C     0.96009   0.56826   0.62022   0.00000  Uiso   1.00
C16    C     0.94302   0.70703   0.61964   0.00000  Uiso   1.00
C17    C     0.01924   0.79249   0.61973   0.00000  Uiso   1.00
C18    C     0.90590   0.37054   0.64640   0.00000  Uiso   1.00
C19    C     0.84326   0.34306   0.66784   0.00000  Uiso   1.00
C20    C     0.87384   0.26206   0.68997   0.00000  Uiso   1.00
C21    C     0.90870   0.36631   0.59491   0.00000  Uiso   1.00
C22    C     0.84841   0.33524   0.57305   0.00000  Uiso   1.00
C23    C     0.88135   0.25063   0.55184   0.00000  Uiso   1.00
H24    H     0.12281   0.32157   0.62192   0.00000  Uiso   1.00
H25    H     0.19598   0.56196   0.62145   0.00000  Uiso   1.00
H26    H     0.09623   0.19804   0.66964   0.00000  Uiso   1.00
H27    H     0.10138   0.19022   0.57487   0.00000  Uiso   1.00
H28    H     0.23742   0.85124   0.62066   0.00000  Uiso   1.00
H29    H     0.02707   0.08384   0.72226   0.00000  Uiso   1.00
H30    H     0.03794   0.06735   0.52242   0.00000  Uiso   1.00
H31    H     0.81698   0.49691   0.61973   0.00000  Uiso   1.00
H32    H     0.87337   0.74693   0.61914   0.00000  Uiso   1.00
H33    H     0.77361   0.38300   0.66733   0.00000  Uiso   1.00
H34    H     0.77877   0.37518   0.57256   0.00000  Uiso   1.00
H35    H     0.97557   0.00136   0.61878   0.00000  Uiso   1.00
H36    H     0.76522   0.23396   0.72039   0.00000  Uiso   1.00
H37    H     0.77609   0.21747   0.52054   0.00000  Uiso   1.00
O38    O     0.14910   0.08761   0.61938   0.00000  Uiso   1.00
O39    O     0.87313   0.08079   0.75268   0.00000  Uiso   1.00
O40    O     0.88740   0.05916   0.49049   0.00000  Uiso   1.00
N41    N     0.16805   0.85226   0.62029   0.00000  Uiso   1.00
N42    N     0.97139   0.13480   0.71529   0.00000  Uiso   1.00
N43    N     0.98155   0.11936   0.52846   0.00000  Uiso   1.00
N44    N     0.02715   0.93304   0.61928   0.00000  Uiso   1.00
N45    N     0.83050   0.21558   0.71428   0.00000  Uiso   1.00
N46    N     0.84065   0.20014   0.52745   0.00000  Uiso   1.00
C47    C     0.44725   0.63825   0.62142   0.00000  Uiso   1.00
C48    C     0.44991   0.48333   0.62086   0.00000  Uiso   1.00
C49    C     0.37366   0.39807   0.62095   0.00000  Uiso   1.00
C50    C     0.39060   0.25921   0.62038   0.00000  Uiso   1.00
C51    C     0.38104   0.02650   0.61962   0.00000  Uiso   1.00
C52    C     0.50411   0.68105   0.64704   0.00000  Uiso   1.00
C53    C     0.47342   0.76204   0.66915   0.00000  Uiso   1.00
C54    C     0.53600   0.78963   0.69062   0.00000  Uiso   1.00
C55    C     0.61059   0.86397   0.73050   0.00000  Uiso   1.00
C56    C     0.50130   0.68528   0.59555   0.00000  Uiso   1.00
C57    C     0.46827   0.76987   0.57437   0.00000  Uiso   1.00
C58    C     0.52849   0.80106   0.55248   0.00000  Uiso   1.00
C59    C     0.59873   0.88197   0.51241   0.00000  Uiso   1.00
C60    C     0.61295   0.54326   0.62024   0.00000  Uiso   1.00
C61    C     0.53991   0.43174   0.62022   0.00000  Uiso   1.00
C62    C     0.55698   0.29297   0.61964   0.00000  Uiso   1.00
C63    C     0.48076   0.20751   0.61973   0.00000  Uiso   1.00
C64    C     0.59410   0.62946   0.64640   0.00000  Uiso   1.00
C65    C     0.65674   0.65694   0.66784   0.00000  Uiso   1.00
C66    C     0.62616   0.73794   0.68997   0.00000  Uiso   1.00
C67    C     0.59130   0.63369   0.59491   0.00000  Uiso   1.00
C68    C     0.65159   0.66476   0.57305   0.00000  Uiso   1.00
C69    C     0.61865   0.74937   0.55184   0.00000  Uiso   1.00
H70    H     0.37719   0.67843   0.62192   0.00000  Uiso   1.00
H71    H     0.30402   0.43804   0.62145   0.00000  Uiso   1.00
H72    H     0.40377   0.80196   0.66964   0.00000  Uiso   1.00
H73    H     0.39862   0.80978   0.57487   0.00000  Uiso   1.00
H74    H     0.26258   0.14876   0.62066   0.00000  Uiso   1.00
H75    H     0.47293   0.91616   0.72226   0.00000  Uiso   1.00
H76    H     0.46206   0.93265   0.52242   0.00000  Uiso   1.00
H77    H     0.68302   0.50309   0.61973   0.00000  Uiso   1.00
H78    H     0.62663   0.25307   0.61914   0.00000  Uiso   1.00
H79    H     0.72639   0.61700   0.66733   0.00000  Uiso   1.00
H80    H     0.72123   0.62482   0.57256   0.00000  Uiso   1.00
H81    H     0.52443   0.99864   0.61878   0.00000  Uiso   1.00
H82    H     0.73478   0.76604   0.72039   0.00000  Uiso   1.00
H83    H     0.72391   0.78253   0.52054   0.00000  Uiso   1.00
O84    O     0.35090   0.91239   0.61938   0.00000  Uiso   1.00
O85    O     0.62687   0.91921   0.75268   0.00000  Uiso   1.00
O86    O     0.61260   0.94084   0.49049   0.00000  Uiso   1.00
N87    N     0.33195   0.14774   0.62029   0.00000  Uiso   1.00
N88    N     0.52861   0.86520   0.71529   0.00000  Uiso   1.00
N89    N     0.51845   0.88064   0.52846   0.00000  Uiso   1.00
N90    N     0.47285   0.06696   0.61928   0.00000  Uiso   1.00
N91    N     0.66950   0.78442   0.71428   0.00000  Uiso   1.00
N92    N     0.65935   0.79986   0.52745   0.00000  Uiso   1.00
C93    C     0.94725   0.36175   0.87858   0.00000  Uiso   1.00
C94    C     0.94991   0.51667   0.87914   0.00000  Uiso   1.00
C95    C     0.87366   0.60193   0.87905   0.00000  Uiso   1.00
C96    C     0.89060   0.74079   0.87962   0.00000  Uiso   1.00
C97    C     0.88104   0.97350   0.88038   0.00000  Uiso   1.00
C98    C     0.00411   0.31895   0.85296   0.00000  Uiso   1.00
C99    C     0.97342   0.23796   0.83085   0.00000  Uiso   1.00
C100   C     0.03600   0.21037   0.80938   0.00000  Uiso   1.00
C101   C     0.11059   0.13603   0.76950   0.00000  Uiso   1.00
C102   C     0.00130   0.31472   0.90445   0.00000  Uiso   1.00
C103   C     0.96827   0.23013   0.92563   0.00000  Uiso   1.00
C104   C     0.02849   0.19894   0.94752   0.00000  Uiso   1.00
C105   C     0.09873   0.11803   0.98759   0.00000  Uiso   1.00
C106   C     0.11295   0.45674   0.87976   0.00000  Uiso   1.00
C107   C     0.03991   0.56826   0.87978   0.00000  Uiso   1.00
C108   C     0.05698   0.70703   0.88036   0.00000  Uiso   1.00
C109   C     0.98076   0.79249   0.88027   0.00000  Uiso   1.00
C110   C     0.09410   0.37054   0.85360   0.00000  Uiso   1.00
C111   C     0.15674   0.34306   0.83216   0.00000  Uiso   1.00
C112   C     0.12616   0.26206   0.81003   0.00000  Uiso   1.00
C113   C     0.09130   0.36631   0.90509   0.00000  Uiso   1.00
C114   C     0.15159   0.33524   0.92695   0.00000  Uiso   1.00
C115   C     0.11865   0.25063   0.94816   0.00000  Uiso   1.00
H116   H     0.87719   0.32157   0.87808   0.00000  Uiso   1.00
H117   H     0.80402   0.56196   0.87855   0.00000  Uiso   1.00
H118   H     0.90377   0.19804   0.83036   0.00000  Uiso   1.00
H119   H     0.89862   0.19022   0.92513   0.00000  Uiso   1.00
H120   H     0.76258   0.85124   0.87934   0.00000  Uiso   1.00
H121   H     0.97293   0.08384   0.77774   0.00000  Uiso   1.00
H122   H     0.96206   0.06735   0.97758   0.00000  Uiso   1.00
H123   H     0.18302   0.49691   0.88027   0.00000  Uiso   1.00
H124   H     0.12663   0.74693   0.88086   0.00000  Uiso   1.00
H125   H     0.22639   0.38300   0.83267   0.00000  Uiso   1.00
H126   H     0.22123   0.37518   0.92744   0.00000  Uiso   1.00
H127   H     0.02443   0.00136   0.88122   0.00000  Uiso   1.00
H128   H     0.23478   0.23396   0.77961   0.00000  Uiso   1.00
H129   H     0.22391   0.21747   0.97946   0.00000  Uiso   1.00
O130   O     0.85090   0.08761   0.88062   0.00000  Uiso   1.00
O131   O     0.12687   0.08079   0.74732   0.00000  Uiso   1.00
O132   O     0.11260   0.05916   0.00951   0.00000  Uiso   1.00
N133   N     0.83195   0.85226   0.87971   0.00000  Uiso   1.00
N134   N     0.02861   0.13480   0.78471   0.00000  Uiso   1.00
N135   N     0.01845   0.11936   0.97154   0.00000  Uiso   1.00
N136   N     0.97285   0.93304   0.88072   0.00000  Uiso   1.00
N137   N     0.16950   0.21558   0.78572   0.00000  Uiso   1.00
N138   N     0.15935   0.20014   0.97255   0.00000  Uiso   1.00
C139   C     0.55275   0.63825   0.87858   0.00000  Uiso   1.00
C140   C     0.55009   0.48333   0.87914   0.00000  Uiso   1.00
C141   C     0.62634   0.39807   0.87905   0.00000  Uiso   1.00
C142   C     0.60940   0.25921   0.87962   0.00000  Uiso   1.00
C143   C     0.61896   0.02650   0.88038   0.00000  Uiso   1.00
C144   C     0.49589   0.68105   0.85296   0.00000  Uiso   1.00
C145   C     0.52658   0.76204   0.83085   0.00000  Uiso   1.00
C146   C     0.46400   0.78963   0.80938   0.00000  Uiso   1.00
C147   C     0.38941   0.86397   0.76950   0.00000  Uiso   1.00
C148   C     0.49870   0.68528   0.90445   0.00000  Uiso   1.00
C149   C     0.53173   0.76987   0.92563   0.00000  Uiso   1.00
C150   C     0.47151   0.80106   0.94752   0.00000  Uiso   1.00
C151   C     0.40127   0.88197   0.98759   0.00000  Uiso   1.00
C152   C     0.38705   0.54326   0.87976   0.00000  Uiso   1.00
C153   C     0.46009   0.43174   0.87978   0.00000  Uiso   1.00
C154   C     0.44302   0.29297   0.88036   0.00000  Uiso   1.00
C155   C     0.51924   0.20751   0.88027   0.00000  Uiso   1.00
C156   C     0.40590   0.62946   0.85360   0.00000  Uiso   1.00
C157   C     0.34326   0.65694   0.83216   0.00000  Uiso   1.00
C158   C     0.37384   0.73794   0.81003   0.00000  Uiso   1.00
C159   C     0.40870   0.63369   0.90509   0.00000  Uiso   1.00
C160   C     0.34841   0.66476   0.92695   0.00000  Uiso   1.00
C161   C     0.38135   0.74937   0.94816   0.00000  Uiso   1.00
H162   H     0.62281   0.67843   0.87808   0.00000  Uiso   1.00
H163   H     0.69598   0.43804   0.87855   0.00000  Uiso   1.00
H164   H     0.59623   0.80196   0.83036   0.00000  Uiso   1.00
H165   H     0.60138   0.80978   0.92513   0.00000  Uiso   1.00
H166   H     0.73742   0.14876   0.87934   0.00000  Uiso   1.00
H167   H     0.52707   0.91616   0.77774   0.00000  Uiso   1.00
H168   H     0.53794   0.93265   0.97758   0.00000  Uiso   1.00
H169   H     0.31698   0.50309   0.88027   0.00000  Uiso   1.00
H170   H     0.37337   0.25307   0.88086   0.00000  Uiso   1.00
H171   H     0.27361   0.61700   0.83267   0.00000  Uiso   1.00
H172   H     0.27877   0.62482   0.92744   0.00000  Uiso   1.00
H173   H     0.47557   0.99864   0.88122   0.00000  Uiso   1.00
H174   H     0.26522   0.76604   0.77961   0.00000  Uiso   1.00
H175   H     0.27609   0.78253   0.97946   0.00000  Uiso   1.00
O176   O     0.64910   0.91239   0.88062   0.00000  Uiso   1.00
O177   O     0.37313   0.91921   0.74732   0.00000  Uiso   1.00
O178   O     0.38740   0.94084   0.00951   0.00000  Uiso   1.00
N179   N     0.66805   0.14774   0.87971   0.00000  Uiso   1.00
N180   N     0.47139   0.86520   0.78471   0.00000  Uiso   1.00
N181   N     0.48155   0.88064   0.97154   0.00000  Uiso   1.00
N182   N     0.52715   0.06696   0.88072   0.00000  Uiso   1.00
N183   N     0.33050   0.78442   0.78572   0.00000  Uiso   1.00
N184   N     0.34065   0.79986   0.97255   0.00000  Uiso   1.00
C185   C     0.94725   0.63825   0.37858   0.00000  Uiso   1.00
C186   C     0.94991   0.48333   0.37914   0.00000  Uiso   1.00
C187   C     0.87366   0.39807   0.37905   0.00000  Uiso   1.00
C188   C     0.89060   0.25921   0.37962   0.00000  Uiso   1.00
C189   C     0.88104   0.02650   0.38038   0.00000  Uiso   1.00
C190   C     0.00411   0.68105   0.35296   0.00000  Uiso   1.00
C191   C     0.97342   0.76204   0.33085   0.00000  Uiso   1.00
C192   C     0.03600   0.78963   0.30938   0.00000  Uiso   1.00
C193   C     0.11059   0.86397   0.26950   0.00000  Uiso   1.00
C194   C     0.00130   0.68528   0.40445   0.00000  Uiso   1.00
C195   C     0.96827   0.76987   0.42563   0.00000  Uiso   1.00
C196   C     0.02849   0.80106   0.44752   0.00000  Uiso   1.00
C197   C     0.09873   0.88197   0.48759   0.00000  Uiso   1.00
C198   C     0.11295   0.54326   0.37976   0.00000  Uiso   1.00
C199   C     0.03991   0.43174   0.37978   0.00000  Uiso   1.00
C200   C     0.05698   0.29297   0.38036   0.00000  Uiso   1.00
C201   C     0.98076   0.20751   0.38027   0.00000  Uiso   1.00
C202   C     0.09410   0.62946   0.35360   0.00000  Uiso   1.00
C203   C     0.15674   0.65694   0.33216   0.00000  Uiso   1.00
C204   C     0.12616   0.73794   0.31003   0.00000  Uiso   1.00
C205   C     0.09130   0.63369   0.40509   0.00000  Uiso   1.00
C206   C     0.15159   0.66476   0.42695   0.00000  Uiso   1.00
C207   C     0.11865   0.74937   0.44816   0.00000  Uiso   1.00
H208   H     0.87719   0.67843   0.37808   0.00000  Uiso   1.00
H209   H     0.80402   0.43804   0.37855   0.00000  Uiso   1.00
H210   H     0.90377   0.80196   0.33036   0.00000  Uiso   1.00
H211   H     0.89862   0.80978   0.42513   0.00000  Uiso   1.00
H212   H     0.76258   0.14876   0.37934   0.00000  Uiso   1.00
H213   H     0.97293   0.91616   0.27774   0.00000  Uiso   1.00
H214   H     0.96206   0.93265   0.47758   0.00000  Uiso   1.00
H215   H     0.18302   0.50309   0.38027   0.00000  Uiso   1.00
H216   H     0.12663   0.25307   0.38086   0.00000  Uiso   1.00
H217   H     0.22639   0.61700   0.33267   0.00000  Uiso   1.00
H218   H     0.22123   0.62482   0.42744   0.00000  Uiso   1.00
H219   H     0.02443   0.99864   0.38122   0.00000  Uiso   1.00
H220   H     0.23478   0.76604   0.27961   0.00000  Uiso   1.00
H221   H     0.22391   0.78253   0.47946   0.00000  Uiso   1.00
O222   O     0.85090   0.91239   0.38062   0.00000  Uiso   1.00
O223   O     0.12687   0.91921   0.24732   0.00000  Uiso   1.00
O224   O     0.11260   0.94084   0.50951   0.00000  Uiso   1.00
N225   N     0.83195   0.14774   0.37971   0.00000  Uiso   1.00
N226   N     0.02861   0.86520   0.28471   0.00000  Uiso   1.00
N227   N     0.01845   0.88064   0.47154   0.00000  Uiso   1.00
N228   N     0.97285   0.06696   0.38072   0.00000  Uiso   1.00
N229   N     0.16950   0.78442   0.28572   0.00000  Uiso   1.00
N230   N     0.15935   0.79986   0.47255   0.00000  Uiso   1.00
C231   C     0.55275   0.36175   0.37858   0.00000  Uiso   1.00
C232   C     0.55009   0.51667   0.37914   0.00000  Uiso   1.00
C233   C     0.62634   0.60193   0.37905   0.00000  Uiso   1.00
C234   C     0.60940   0.74079   0.37962   0.00000  Uiso   1.00
C235   C     0.61896   0.97350   0.38038   0.00000  Uiso   1.00
C236   C     0.49589   0.31895   0.35296   0.00000  Uiso   1.00
C237   C     0.52658   0.23796   0.33085   0.00000  Uiso   1.00
C238   C     0.46400   0.21037   0.30938   0.00000  Uiso   1.00
C239   C     0.38941   0.13603   0.26950   0.00000  Uiso   1.00
C240   C     0.49870   0.31472   0.40445   0.00000  Uiso   1.00
C241   C     0.53173   0.23013   0.42563   0.00000  Uiso   1.00
C242   C     0.47151   0.19894   0.44752   0.00000  Uiso   1.00
C243   C     0.40127   0.11803   0.48759   0.00000  Uiso   1.00
C244   C     0.38705   0.45674   0.37976   0.00000  Uiso   1.00
C245   C     0.46009   0.56826   0.37978   0.00000  Uiso   1.00
C246   C     0.44302   0.70703   0.38036   0.00000  Uiso   1.00
C247   C     0.51924   0.79249   0.38027   0.00000  Uiso   1.00
C248   C     0.40590   0.37054   0.35360   0.00000  Uiso   1.00
C249   C     0.34326   0.34306   0.33216   0.00000  Uiso   1.00
C250   C     0.37384   0.26206   0.31003   0.00000  Uiso   1.00
C251   C     0.40870   0.36631   0.40509   0.00000  Uiso   1.00
C252   C     0.34841   0.33524   0.42695   0.00000  Uiso   1.00
C253   C     0.38135   0.25063   0.44816   0.00000  Uiso   1.00
H254   H     0.62281   0.32157   0.37808   0.00000  Uiso   1.00
H255   H     0.69598   0.56196   0.37855   0.00000  Uiso   1.00
H256   H     0.59623   0.19804   0.33036   0.00000  Uiso   1.00
H257   H     0.60138   0.19022   0.42513   0.00000  Uiso   1.00
H258   H     0.73742   0.85124   0.37934   0.00000  Uiso   1.00
H259   H     0.52707   0.08384   0.27774   0.00000  Uiso   1.00
H260   H     0.53794   0.06735   0.47758   0.00000  Uiso   1.00
H261   H     0.31698   0.49691   0.38027   0.00000  Uiso   1.00
H262   H     0.37337   0.74693   0.38086   0.00000  Uiso   1.00
H263   H     0.27361   0.38300   0.33267   0.00000  Uiso   1.00
H264   H     0.27877   0.37518   0.42744   0.00000  Uiso   1.00
H265   H     0.47557   0.00136   0.38122   0.00000  Uiso   1.00
H266   H     0.26522   0.23396   0.27961   0.00000  Uiso   1.00
H267   H     0.27609   0.21747   0.47946   0.00000  Uiso   1.00
O268   O     0.64910   0.08761   0.38062   0.00000  Uiso   1.00
O269   O     0.37313   0.08079   0.24732   0.00000  Uiso   1.00
O270   O     0.38740   0.05916   0.50951   0.00000  Uiso   1.00
N271   N     0.66805   0.85226   0.37971   0.00000  Uiso   1.00
N272   N     0.47139   0.13480   0.28471   0.00000  Uiso   1.00
N273   N     0.48155   0.11936   0.47154   0.00000  Uiso   1.00
N274   N     0.52715   0.93304   0.38072   0.00000  Uiso   1.00
N275   N     0.33050   0.21558   0.28572   0.00000  Uiso   1.00
N276   N     0.34065   0.20014   0.47255   0.00000  Uiso   1.00
C277   C     0.05275   0.63825   0.12142   0.00000  Uiso   1.00
C278   C     0.05009   0.48333   0.12086   0.00000  Uiso   1.00
C279   C     0.12634   0.39807   0.12095   0.00000  Uiso   1.00
C280   C     0.10940   0.25921   0.12038   0.00000  Uiso   1.00
C281   C     0.11896   0.02650   0.11962   0.00000  Uiso   1.00
C282   C     0.99589   0.68105   0.14704   0.00000  Uiso   1.00
C283   C     0.02658   0.76204   0.16915   0.00000  Uiso   1.00
C284   C     0.96400   0.78963   0.19062   0.00000  Uiso   1.00
C285   C     0.88941   0.86397   0.23050   0.00000  Uiso   1.00
C286   C     0.99870   0.68528   0.09555   0.00000  Uiso   1.00
C287   C     0.03173   0.76987   0.07437   0.00000  Uiso   1.00
C288   C     0.97151   0.80106   0.05248   0.00000  Uiso   1.00
C289   C     0.90127   0.88197   0.01241   0.00000  Uiso   1.00
C290   C     0.88705   0.54326   0.12024   0.00000  Uiso   1.00
C291   C     0.96009   0.43174   0.12022   0.00000  Uiso   1.00
C292   C     0.94302   0.29297   0.11964   0.00000  Uiso   1.00
C293   C     0.01924   0.20751   0.11973   0.00000  Uiso   1.00
C294   C     0.90590   0.62946   0.14640   0.00000  Uiso   1.00
C295   C     0.84326   0.65694   0.16784   0.00000  Uiso   1.00
C296   C     0.87384   0.73794   0.18997   0.00000  Uiso   1.00
C297   C     0.90870   0.63369   0.09491   0.00000  Uiso   1.00
C298   C     0.84841   0.66476   0.07305   0.00000  Uiso   1.00
C299   C     0.88135   0.74937   0.05184   0.00000  Uiso   1.00
H300   H     0.12281   0.67843   0.12192   0.00000  Uiso   1.00
H301   H     0.19598   0.43804   0.12145   0.00000  Uiso   1.00
H302   H     0.09623   0.80196   0.16964   0.00000  Uiso   1.00
H303   H     0.10138   0.80978   0.07487   0.00000  Uiso   1.00
H304   H     0.23742   0.14876   0.12066   0.00000  Uiso   1.00
H305   H     0.02707   0.91616   0.22226   0.00000  Uiso   1.00
H306   H     0.03794   0.93265   0.02242   0.00000  Uiso   1.00
H307   H     0.81698   0.50309   0.11973   0.00000  Uiso   1.00
H308   H     0.87337   0.25307   0.11914   0.00000  Uiso   1.00
H309   H     0.77361   0.61700   0.16733   0.00000  Uiso   1.00
H310   H     0.77877   0.62482   0.07256   0.00000  Uiso   1.00
H311   H     0.97557   0.99864   0.11878   0.00000  Uiso   1.00
H312   H     0.76522   0.76604   0.22039   0.00000  Uiso   1.00
H313   H     0.77609   0.78253   0.02054   0.00000  Uiso   1.00
O314   O     0.14910   0.91239   0.11938   0.00000  Uiso   1.00
O315   O     0.87313   0.91921   0.25268   0.00000  Uiso   1.00
O316   O     0.88740   0.94084   0.99049   0.00000  Uiso   1.00
N317   N     0.16805   0.14774   0.12029   0.00000  Uiso   1.00
N318   N     0.97139   0.86520   0.21529   0.00000  Uiso   1.00
N319   N     0.98155   0.88064   0.02846   0.00000  Uiso   1.00
N320   N     0.02715   0.06696   0.11928   0.00000  Uiso   1.00
N321   N     0.83050   0.78442   0.21428   0.00000  Uiso   1.00
N322   N     0.84065   0.79986   0.02745   0.00000  Uiso   1.00
C323   C     0.44725   0.36175   0.12142   0.00000  Uiso   1.00
C324   C     0.44991   0.51667   0.12086   0.00000  Uiso   1.00
C325   C     0.37366   0.60193   0.12095   0.00000  Uiso   1.00
C326   C     0.39060   0.74079   0.12038   0.00000  Uiso   1.00
C327   C     0.38104   0.97350   0.11962   0.00000  Uiso   1.00
C328   C     0.50411   0.31895   0.14704   0.00000  Uiso   1.00
C329   C     0.47342   0.23796   0.16915   0.00000  Uiso   1.00
C330   C     0.53600   0.21037   0.19062   0.00000  Uiso   1.00
C331   C     0.61059   0.13603   0.23050   0.00000  Uiso   1.00
C332   C     0.50130   0.31472   0.09555   0.00000  Uiso   1.00
C333   C     0.46827   0.23013   0.07437   0.00000  Uiso   1.00
C334   C     0.52849   0.19894   0.05248   0.00000  Uiso   1.00
C335   C     0.59873   0.11803   0.01241   0.00000  Uiso   1.00
C336   C     0.61295   0.45674   0.12024   0.00000  Uiso   1.00
C337   C     0.53991   0.56826   0.12022   0.00000  Uiso   1.00
C338   C     0.55698   0.70703   0.11964   0.00000  Uiso   1.00
C339   C     0.48076   0.79249   0.11973   0.00000  Uiso   1.00
C340   C     0.59410   0.37054   0.14640   0.00000  Uiso   1.00
C341   C     0.65674   0.34306   0.16784   0.00000  Uiso   1.00
C342   C     0.62616   0.26206   0.18997   0.00000  Uiso   1.00
C343   C     0.59130   0.36631   0.09491   0.00000  Uiso   1.00
C344   C     0.65159   0.33524   0.07305   0.00000  Uiso   1.00
C345   C     0.61865   0.25063   0.05184   0.00000  Uiso   1.00
H346   H     0.37719   0.32157   0.12192   0.00000  Uiso   1.00
H347   H     0.30402   0.56196   0.12145   0.00000  Uiso   1.00
H348   H     0.40377   0.19804   0.16964   0.00000  Uiso   1.00
H349   H     0.39862   0.19022   0.07487   0.00000  Uiso   1.00
H350   H     0.26258   0.85124   0.12066   0.00000  Uiso   1.00
H351   H     0.47293   0.08384   0.22226   0.00000  Uiso   1.00
H352   H     0.46206   0.06735   0.02242   0.00000  Uiso   1.00
H353   H     0.68302   0.49691   0.11973   0.00000  Uiso   1.00
H354   H     0.62663   0.74693   0.11914   0.00000  Uiso   1.00
H355   H     0.72639   0.38300   0.16733   0.00000  Uiso   1.00
H356   H     0.72123   0.37518   0.07256   0.00000  Uiso   1.00
H357   H     0.52443   0.00136   0.11878   0.00000  Uiso   1.00
H358   H     0.73478   0.23396   0.22039   0.00000  Uiso   1.00
H359   H     0.72391   0.21747   0.02054   0.00000  Uiso   1.00
O360   O     0.35090   0.08761   0.11938   0.00000  Uiso   1.00
O361   O     0.62687   0.08079   0.25268   0.00000  Uiso   1.00
O362   O     0.61260   0.05916   0.99049   0.00000  Uiso   1.00
N363   N     0.33195   0.85226   0.12029   0.00000  Uiso   1.00
N364   N     0.52861   0.13480   0.21529   0.00000  Uiso   1.00
N365   N     0.51845   0.11936   0.02846   0.00000  Uiso   1.00
N366   N     0.47285   0.93304   0.11928   0.00000  Uiso   1.00
N367   N     0.66950   0.21558   0.21428   0.00000  Uiso   1.00
N368   N     0.65935   0.20014   0.02745   0.00000  Uiso   1.00
