data_job_03309
_audit_creation_date              2018-12-19
_audit_creation_method            'Materials Studio'
_symmetry_space_group_name_H-M    'P1'
_symmetry_Int_Tables_number       1
_symmetry_cell_setting            triclinic
loop_
_symmetry_equiv_pos_as_xyz
  x,y,z
_cell_length_a                    22.5907
_cell_length_b                    12.6742
_cell_length_c                    12.3192
_cell_angle_alpha                 90.0000
_cell_angle_beta                  90.0000
_cell_angle_gamma                 90.0000
loop_
_atom_site_label
_atom_site_type_symbol
_atom_site_fract_x
_atom_site_fract_y
_atom_site_fract_z
_atom_site_U_iso_or_equiv
_atom_site_adp_type
_atom_site_occupancy
C1     C     0.76731   0.07930   0.37189   0.00000  Uiso   1.00
C2     C     0.79844   0.18071   0.33758   0.00000  Uiso   1.00
C3     C     0.83640   0.24006   0.40175   0.00000  Uiso   1.00
C4     C     0.86040   0.33031   0.35544   0.00000  Uiso   1.00
C5     C     0.91078   0.48328   0.31841   0.00000  Uiso   1.00
C6     C     0.70135   0.09874   0.35476   0.00000  Uiso   1.00
C7     C     0.65767   0.08915   0.43336   0.00000  Uiso   1.00
C8     C     0.59993   0.11038   0.40150   0.00000  Uiso   1.00
C9     C     0.49956   0.13601   0.39112   0.00000  Uiso   1.00
C10    C     0.78507   0.99596   0.28877   0.00000  Uiso   1.00
C11    C     0.81178   0.89994   0.31190   0.00000  Uiso   1.00
C12    C     0.82452   0.83462   0.22448   0.00000  Uiso   1.00
C13    C     0.85415   0.70067   0.11165   0.00000  Uiso   1.00
C14    C     0.74243   0.13402   0.17554   0.00000  Uiso   1.00
C15    C     0.78493   0.21043   0.23093   0.00000  Uiso   1.00
C16    C     0.80888   0.30061   0.18451   0.00000  Uiso   1.00
C17    C     0.84686   0.36009   0.24860   0.00000  Uiso   1.00
C18    C     0.68784   0.12846   0.24812   0.00000  Uiso   1.00
C19    C     0.63015   0.14970   0.21613   0.00000  Uiso   1.00
C20    C     0.58639   0.14015   0.29466   0.00000  Uiso   1.00
C21    C     0.77156   0.02568   0.18212   0.00000  Uiso   1.00
C22    C     0.78426   0.96049   0.09466   0.00000  Uiso   1.00
C23    C     0.81098   0.86440   0.11764   0.00000  Uiso   1.00
H24    H     0.77782   0.05616   0.45492   0.00000  Uiso   1.00
H25    H     0.84684   0.21704   0.48428   0.00000  Uiso   1.00
H26    H     0.66814   0.06614   0.51589   0.00000  Uiso   1.00
H27    H     0.82223   0.87696   0.39444   0.00000  Uiso   1.00
H28    H     0.91738   0.40854   0.46981   0.00000  Uiso   1.00
H29    H     0.54058   0.09032   0.53645   0.00000  Uiso   1.00
H30    H     0.86550   0.69140   0.28035   0.00000  Uiso   1.00
H31    H     0.73191   0.15716   0.09251   0.00000  Uiso   1.00
H32    H     0.79841   0.32359   0.10198   0.00000  Uiso   1.00
H33    H     0.61971   0.17269   0.13359   0.00000  Uiso   1.00
H34    H     0.77380   0.98352   0.01214   0.00000  Uiso   1.00
H35    H     0.87808   0.49502   0.15953   0.00000  Uiso   1.00
H36    H     0.50127   0.17680   0.22616   0.00000  Uiso   1.00
H37    H     0.82620   0.77789   0.97006   0.00000  Uiso   1.00
O38    O     0.94229   0.55946   0.32745   0.00000  Uiso   1.00
O39    O     0.44794   0.14195   0.41487   0.00000  Uiso   1.00
O40    O     0.87423   0.61858   0.07887   0.00000  Uiso   1.00
N41    N     0.89902   0.40604   0.39548   0.00000  Uiso   1.00
N42    N     0.54673   0.10854   0.45778   0.00000  Uiso   1.00
N43    N     0.85049   0.73557   0.21836   0.00000  Uiso   1.00
N44    N     0.87787   0.45258   0.22852   0.00000  Uiso   1.00
N45    N     0.52558   0.15508   0.29082   0.00000  Uiso   1.00
N46    N     0.82934   0.78211   0.05139   0.00000  Uiso   1.00
C47    C     0.23269   0.92070   0.37189   0.00000  Uiso   1.00
C48    C     0.20156   0.81929   0.33758   0.00000  Uiso   1.00
C49    C     0.16360   0.75994   0.40175   0.00000  Uiso   1.00
C50    C     0.13960   0.66969   0.35544   0.00000  Uiso   1.00
C51    C     0.08922   0.51672   0.31841   0.00000  Uiso   1.00
C52    C     0.29865   0.90126   0.35476   0.00000  Uiso   1.00
C53    C     0.34233   0.91085   0.43336   0.00000  Uiso   1.00
C54    C     0.40007   0.88962   0.40150   0.00000  Uiso   1.00
C55    C     0.50044   0.86399   0.39112   0.00000  Uiso   1.00
C56    C     0.21493   0.00404   0.28877   0.00000  Uiso   1.00
C57    C     0.18822   0.10006   0.31190   0.00000  Uiso   1.00
C58    C     0.17548   0.16538   0.22448   0.00000  Uiso   1.00
C59    C     0.14585   0.29933   0.11165   0.00000  Uiso   1.00
C60    C     0.25757   0.86598   0.17554   0.00000  Uiso   1.00
C61    C     0.21507   0.78957   0.23093   0.00000  Uiso   1.00
C62    C     0.19112   0.69939   0.18451   0.00000  Uiso   1.00
C63    C     0.15314   0.63991   0.24860   0.00000  Uiso   1.00
C64    C     0.31216   0.87154   0.24812   0.00000  Uiso   1.00
C65    C     0.36985   0.85030   0.21613   0.00000  Uiso   1.00
C66    C     0.41361   0.85985   0.29466   0.00000  Uiso   1.00
C67    C     0.22844   0.97432   0.18212   0.00000  Uiso   1.00
C68    C     0.21574   0.03951   0.09466   0.00000  Uiso   1.00
C69    C     0.18902   0.13560   0.11764   0.00000  Uiso   1.00
H70    H     0.22218   0.94384   0.45492   0.00000  Uiso   1.00
H71    H     0.15316   0.78296   0.48428   0.00000  Uiso   1.00
H72    H     0.33186   0.93386   0.51589   0.00000  Uiso   1.00
H73    H     0.17777   0.12304   0.39444   0.00000  Uiso   1.00
H74    H     0.08262   0.59146   0.46981   0.00000  Uiso   1.00
H75    H     0.45942   0.90968   0.53645   0.00000  Uiso   1.00
H76    H     0.13450   0.30860   0.28035   0.00000  Uiso   1.00
H77    H     0.26809   0.84284   0.09251   0.00000  Uiso   1.00
H78    H     0.20159   0.67641   0.10198   0.00000  Uiso   1.00
H79    H     0.38029   0.82731   0.13359   0.00000  Uiso   1.00
H80    H     0.22620   0.01648   0.01214   0.00000  Uiso   1.00
H81    H     0.12192   0.50498   0.15953   0.00000  Uiso   1.00
H82    H     0.49873   0.82320   0.22616   0.00000  Uiso   1.00
H83    H     0.17380   0.22211   0.97006   0.00000  Uiso   1.00
O84    O     0.05771   0.44054   0.32745   0.00000  Uiso   1.00
O85    O     0.55206   0.85805   0.41487   0.00000  Uiso   1.00
O86    O     0.12577   0.38142   0.07887   0.00000  Uiso   1.00
N87    N     0.10098   0.59396   0.39548   0.00000  Uiso   1.00
N88    N     0.45327   0.89146   0.45778   0.00000  Uiso   1.00
N89    N     0.14951   0.26443   0.21836   0.00000  Uiso   1.00
N90    N     0.12213   0.54742   0.22852   0.00000  Uiso   1.00
N91    N     0.47442   0.84492   0.29082   0.00000  Uiso   1.00
N92    N     0.17066   0.21789   0.05139   0.00000  Uiso   1.00
C93    C     0.73269   0.57930   0.62811   0.00000  Uiso   1.00
C94    C     0.70156   0.68071   0.66242   0.00000  Uiso   1.00
C95    C     0.66360   0.74006   0.59825   0.00000  Uiso   1.00
C96    C     0.63960   0.83031   0.64456   0.00000  Uiso   1.00
C97    C     0.58922   0.98328   0.68159   0.00000  Uiso   1.00
C98    C     0.79865   0.59874   0.64524   0.00000  Uiso   1.00
C99    C     0.84233   0.58915   0.56664   0.00000  Uiso   1.00
C100   C     0.90007   0.61038   0.59850   0.00000  Uiso   1.00
C101   C     0.00044   0.63601   0.60888   0.00000  Uiso   1.00
C102   C     0.71493   0.49596   0.71123   0.00000  Uiso   1.00
C103   C     0.68822   0.39994   0.68810   0.00000  Uiso   1.00
C104   C     0.67548   0.33462   0.77552   0.00000  Uiso   1.00
C105   C     0.64585   0.20067   0.88835   0.00000  Uiso   1.00
C106   C     0.75757   0.63402   0.82446   0.00000  Uiso   1.00
C107   C     0.71507   0.71043   0.76907   0.00000  Uiso   1.00
C108   C     0.69112   0.80061   0.81549   0.00000  Uiso   1.00
C109   C     0.65314   0.86009   0.75140   0.00000  Uiso   1.00
C110   C     0.81216   0.62846   0.75188   0.00000  Uiso   1.00
C111   C     0.86985   0.64970   0.78387   0.00000  Uiso   1.00
C112   C     0.91361   0.64015   0.70534   0.00000  Uiso   1.00
C113   C     0.72844   0.52568   0.81788   0.00000  Uiso   1.00
C114   C     0.71574   0.46049   0.90534   0.00000  Uiso   1.00
C115   C     0.68902   0.36440   0.88236   0.00000  Uiso   1.00
H116   H     0.72218   0.55616   0.54508   0.00000  Uiso   1.00
H117   H     0.65316   0.71704   0.51572   0.00000  Uiso   1.00
H118   H     0.83186   0.56614   0.48411   0.00000  Uiso   1.00
H119   H     0.67777   0.37696   0.60556   0.00000  Uiso   1.00
H120   H     0.58262   0.90854   0.53019   0.00000  Uiso   1.00
H121   H     0.95942   0.59032   0.46355   0.00000  Uiso   1.00
H122   H     0.63450   0.19140   0.71965   0.00000  Uiso   1.00
H123   H     0.76809   0.65716   0.90749   0.00000  Uiso   1.00
H124   H     0.70159   0.82359   0.89802   0.00000  Uiso   1.00
H125   H     0.88029   0.67269   0.86641   0.00000  Uiso   1.00
H126   H     0.72620   0.48352   0.98786   0.00000  Uiso   1.00
H127   H     0.62192   0.99502   0.84047   0.00000  Uiso   1.00
H128   H     0.99873   0.67680   0.77384   0.00000  Uiso   1.00
H129   H     0.67380   0.27789   0.02994   0.00000  Uiso   1.00
O130   O     0.55771   0.05946   0.67255   0.00000  Uiso   1.00
O131   O     0.05206   0.64195   0.58513   0.00000  Uiso   1.00
O132   O     0.62577   0.11858   0.92113   0.00000  Uiso   1.00
N133   N     0.60098   0.90604   0.60452   0.00000  Uiso   1.00
N134   N     0.95327   0.60854   0.54222   0.00000  Uiso   1.00
N135   N     0.64951   0.23557   0.78164   0.00000  Uiso   1.00
N136   N     0.62213   0.95258   0.77148   0.00000  Uiso   1.00
N137   N     0.97442   0.65508   0.70918   0.00000  Uiso   1.00
N138   N     0.67066   0.28211   0.94861   0.00000  Uiso   1.00
C139   C     0.26731   0.42070   0.62811   0.00000  Uiso   1.00
C140   C     0.29844   0.31929   0.66242   0.00000  Uiso   1.00
C141   C     0.33640   0.25994   0.59825   0.00000  Uiso   1.00
C142   C     0.36040   0.16969   0.64456   0.00000  Uiso   1.00
C143   C     0.41078   0.01672   0.68159   0.00000  Uiso   1.00
C144   C     0.20135   0.40126   0.64524   0.00000  Uiso   1.00
C145   C     0.15767   0.41085   0.56664   0.00000  Uiso   1.00
C146   C     0.09993   0.38962   0.59850   0.00000  Uiso   1.00
C147   C     0.99956   0.36399   0.60888   0.00000  Uiso   1.00
C148   C     0.28507   0.50404   0.71123   0.00000  Uiso   1.00
C149   C     0.31178   0.60006   0.68810   0.00000  Uiso   1.00
C150   C     0.32452   0.66538   0.77552   0.00000  Uiso   1.00
C151   C     0.35415   0.79933   0.88835   0.00000  Uiso   1.00
C152   C     0.24243   0.36598   0.82446   0.00000  Uiso   1.00
C153   C     0.28493   0.28957   0.76907   0.00000  Uiso   1.00
C154   C     0.30888   0.19939   0.81549   0.00000  Uiso   1.00
C155   C     0.34686   0.13991   0.75140   0.00000  Uiso   1.00
C156   C     0.18784   0.37154   0.75188   0.00000  Uiso   1.00
C157   C     0.13015   0.35030   0.78387   0.00000  Uiso   1.00
C158   C     0.08639   0.35985   0.70534   0.00000  Uiso   1.00
C159   C     0.27156   0.47432   0.81788   0.00000  Uiso   1.00
C160   C     0.28426   0.53951   0.90534   0.00000  Uiso   1.00
C161   C     0.31098   0.63560   0.88236   0.00000  Uiso   1.00
H162   H     0.27782   0.44384   0.54508   0.00000  Uiso   1.00
H163   H     0.34684   0.28296   0.51572   0.00000  Uiso   1.00
H164   H     0.16814   0.43386   0.48411   0.00000  Uiso   1.00
H165   H     0.32223   0.62304   0.60556   0.00000  Uiso   1.00
H166   H     0.41738   0.09146   0.53019   0.00000  Uiso   1.00
H167   H     0.04058   0.40968   0.46355   0.00000  Uiso   1.00
H168   H     0.36550   0.80860   0.71965   0.00000  Uiso   1.00
H169   H     0.23191   0.34284   0.90749   0.00000  Uiso   1.00
H170   H     0.29841   0.17641   0.89802   0.00000  Uiso   1.00
H171   H     0.11971   0.32731   0.86641   0.00000  Uiso   1.00
H172   H     0.27380   0.51648   0.98786   0.00000  Uiso   1.00
H173   H     0.37808   0.00498   0.84047   0.00000  Uiso   1.00
H174   H     0.00127   0.32320   0.77384   0.00000  Uiso   1.00
H175   H     0.32620   0.72211   0.02994   0.00000  Uiso   1.00
O176   O     0.44229   0.94054   0.67255   0.00000  Uiso   1.00
O177   O     0.94794   0.35805   0.58513   0.00000  Uiso   1.00
O178   O     0.37423   0.88142   0.92113   0.00000  Uiso   1.00
N179   N     0.39902   0.09396   0.60452   0.00000  Uiso   1.00
N180   N     0.04673   0.39146   0.54222   0.00000  Uiso   1.00
N181   N     0.35049   0.76443   0.78164   0.00000  Uiso   1.00
N182   N     0.37787   0.04742   0.77148   0.00000  Uiso   1.00
N183   N     0.02558   0.34492   0.70918   0.00000  Uiso   1.00
N184   N     0.32934   0.71789   0.94861   0.00000  Uiso   1.00
