data_job_07029
_audit_creation_date              2018-12-19
_audit_creation_method            'Materials Studio'
_symmetry_space_group_name_H-M    'P1'
_symmetry_Int_Tables_number       1
_symmetry_cell_setting            triclinic
loop_
_symmetry_equiv_pos_as_xyz
  x,y,z
_cell_length_a                    22.4174
_cell_length_b                    19.7542
_cell_length_c                    21.3721
_cell_angle_alpha                 84.4599
_cell_angle_beta                  86.7725
_cell_angle_gamma                 93.4414
loop_
_atom_site_label
_atom_site_type_symbol
_atom_site_fract_x
_atom_site_fract_y
_atom_site_fract_z
_atom_site_U_iso_or_equiv
_atom_site_adp_type
_atom_site_occupancy
C1     C     0.04333   0.84805   0.81819   0.00000  Uiso   1.00
C2     C     0.00156   0.80318   0.86602   0.00000  Uiso   1.00
C3     C     0.94257   0.81481   0.88255   0.00000  Uiso   1.00
C4     C     0.91188   0.76779   0.92727   0.00000  Uiso   1.00
C5     C     0.84286   0.70673   0.99743   0.00000  Uiso   1.00
C6     C     0.09818   0.86791   0.85312   0.00000  Uiso   1.00
C7     C     0.12044   0.93398   0.85880   0.00000  Uiso   1.00
C8     C     0.17109   0.94144   0.89265   0.00000  Uiso   1.00
C9     C     0.25212   0.98089   0.94275   0.00000  Uiso   1.00
C10    C     0.06478   0.80166   0.76970   0.00000  Uiso   1.00
C11    C     0.05897   0.81203   0.70524   0.00000  Uiso   1.00
C12    C     0.08152   0.76371   0.66885   0.00000  Uiso   1.00
C13    C     0.11069   0.70029   0.58943   0.00000  Uiso   1.00
C14    C     0.09372   0.74384   0.86820   0.00000  Uiso   1.00
C15    C     0.02893   0.74657   0.89319   0.00000  Uiso   1.00
C16    C     0.99832   0.69951   0.93789   0.00000  Uiso   1.00
C17    C     0.93930   0.71107   0.95449   0.00000  Uiso   1.00
C18    C     0.12555   0.81131   0.88029   0.00000  Uiso   1.00
C19    C     0.17619   0.81867   0.91414   0.00000  Uiso   1.00
C20    C     0.19852   0.88473   0.91987   0.00000  Uiso   1.00
C21    C     0.09215   0.74505   0.79687   0.00000  Uiso   1.00
C22    C     0.11472   0.69672   0.76058   0.00000  Uiso   1.00
C23    C     0.10894   0.70701   0.69607   0.00000  Uiso   1.00
H24    H     0.02202   0.89213   0.79704   0.00000  Uiso   1.00
H25    H     0.92140   0.85863   0.86152   0.00000  Uiso   1.00
H26    H     0.09925   0.97777   0.83776   0.00000  Uiso   1.00
H27    H     0.03779   0.85584   0.68423   0.00000  Uiso   1.00
H28    H     0.82193   0.79654   0.94501   0.00000  Uiso   1.00
H29    H     0.19694   0.04777   0.89490   0.00000  Uiso   1.00
H30    H     0.06734   0.79064   0.57114   0.00000  Uiso   1.00
H31    H     0.11503   0.69976   0.88936   0.00000  Uiso   1.00
H32    H     0.01952   0.65571   0.95891   0.00000  Uiso   1.00
H33    H     0.19736   0.77486   0.93515   0.00000  Uiso   1.00
H34    H     0.13590   0.65292   0.78162   0.00000  Uiso   1.00
H35    H     0.90156   0.63185   0.02406   0.00000  Uiso   1.00
H36    H     0.27657   0.88307   0.97394   0.00000  Uiso   1.00
H37    H     0.14697   0.62594   0.65019   0.00000  Uiso   1.00
O38    O     0.79724   0.68870   0.02864   0.00000  Uiso   1.00
O39    O     0.28924   0.01829   0.96288   0.00000  Uiso   1.00
O40    O     0.11921   0.68094   0.53812   0.00000  Uiso   1.00
N41    N     0.85377   0.76382   0.95406   0.00000  Uiso   1.00
N42    N     0.20438   0.99870   0.90722   0.00000  Uiso   1.00
N43    N     0.08323   0.75832   0.60453   0.00000  Uiso   1.00
N44    N     0.89662   0.67520   0.99659   0.00000  Uiso   1.00
N45    N     0.24723   0.91008   0.94975   0.00000  Uiso   1.00
N46    N     0.12608   0.66969   0.64706   0.00000  Uiso   1.00
C47    C     0.94913   0.10253   0.49195   0.00000  Uiso   1.00
C48    C     0.00033   0.10394   0.44164   0.00000  Uiso   1.00
C49    C     0.02857   0.04763   0.42365   0.00000  Uiso   1.00
C50    C     0.07446   0.05959   0.37676   0.00000  Uiso   1.00
C51    C     0.15139   0.05175   0.30291   0.00000  Uiso   1.00
C52    C     0.97032   0.15023   0.53936   0.00000  Uiso   1.00
C53    C     0.97332   0.13284   0.60354   0.00000  Uiso   1.00
C54    C     0.99394   0.18378   0.63891   0.00000  Uiso   1.00
C55    C     0.02424   0.24783   0.71678   0.00000  Uiso   1.00
C56    C     0.89817   0.13661   0.45968   0.00000  Uiso   1.00
C57    C     0.84050   0.10778   0.45687   0.00000  Uiso   1.00
C58    C     0.80037   0.14726   0.42515   0.00000  Uiso   1.00
C59    C     0.71866   0.19015   0.37930   0.00000  Uiso   1.00
C60    C     0.98039   0.22392   0.44064   0.00000  Uiso   1.00
C61    C     0.01731   0.16987   0.41377   0.00000  Uiso   1.00
C62    C     0.06316   0.18193   0.36689   0.00000  Uiso   1.00
C63    C     0.09147   0.12564   0.34883   0.00000  Uiso   1.00
C64    C     0.98730   0.21616   0.51150   0.00000  Uiso   1.00
C65    C     0.00791   0.26714   0.54678   0.00000  Uiso   1.00
C66    C     0.01095   0.24983   0.61099   0.00000  Uiso   1.00
C67    C     0.91515   0.20255   0.43181   0.00000  Uiso   1.00
C68    C     0.87510   0.24208   0.40010   0.00000  Uiso   1.00
C69    C     0.81738   0.21331   0.39723   0.00000  Uiso   1.00
H70    H     0.93591   0.05120   0.51365   0.00000  Uiso   1.00
H71    H     0.01542   0.99661   0.44524   0.00000  Uiso   1.00
H72    H     0.96017   0.08182   0.62510   0.00000  Uiso   1.00
H73    H     0.82738   0.05676   0.47844   0.00000  Uiso   1.00
H74    H     0.11108   0.96516   0.35712   0.00000  Uiso   1.00
H75    H     0.99456   0.14483   0.73637   0.00000  Uiso   1.00
H76    H     0.71455   0.09199   0.42711   0.00000  Uiso   1.00
H77    H     0.99361   0.27526   0.41894   0.00000  Uiso   1.00
H78    H     0.07629   0.23295   0.34533   0.00000  Uiso   1.00
H79    H     0.02104   0.31816   0.52519   0.00000  Uiso   1.00
H80    H     0.88825   0.29310   0.37853   0.00000  Uiso   1.00
H81    H     0.16049   0.15699   0.27603   0.00000  Uiso   1.00
H82    H     0.04397   0.33666   0.65528   0.00000  Uiso   1.00
H83    H     0.76395   0.28381   0.34603   0.00000  Uiso   1.00
O84    O     0.18914   0.02921   0.26988   0.00000  Uiso   1.00
O85    O     0.03627   0.26493   0.76744   0.00000  Uiso   1.00
O86    O     0.66890   0.19560   0.36170   0.00000  Uiso   1.00
N87    N     0.11135   0.01611   0.34813   0.00000  Uiso   1.00
N88    N     0.00242   0.18409   0.70270   0.00000  Uiso   1.00
N89    N     0.74063   0.13469   0.41359   0.00000  Uiso   1.00
N90    N     0.13794   0.11933   0.30450   0.00000  Uiso   1.00
N91    N     0.02901   0.28731   0.65907   0.00000  Uiso   1.00
N92    N     0.76721   0.23791   0.36996   0.00000  Uiso   1.00
C93    C     0.68106   0.99760   0.12710   0.00000  Uiso   1.00
C94    C     0.65231   0.01166   0.06457   0.00000  Uiso   1.00
C95    C     0.67137   0.98904   0.00775   0.00000  Uiso   1.00
C96    C     0.63908   0.00735   0.95590   0.00000  Uiso   1.00
C97    C     0.60200   0.02320   0.85805   0.00000  Uiso   1.00
C98    C     0.69687   0.06716   0.14931   0.00000  Uiso   1.00
C99    C     0.75338   0.09120   0.16376   0.00000  Uiso   1.00
C100   C     0.75858   0.15622   0.18325   0.00000  Uiso   1.00
C101   C     0.79067   0.25821   0.21702   0.00000  Uiso   1.00
C102   C     0.63147   0.96383   0.17355   0.00000  Uiso   1.00
C103   C     0.63300   0.90099   0.20839   0.00000  Uiso   1.00
C104   C     0.58315   0.87903   0.24830   0.00000  Uiso   1.00
C105   C     0.51369   0.82058   0.31970   0.00000  Uiso   1.00
C106   C     0.58980   0.07034   0.13604   0.00000  Uiso   1.00
C107   C     0.60275   0.05117   0.06943   0.00000  Uiso   1.00
C108   C     0.57041   0.06951   0.01764   0.00000  Uiso   1.00
C109   C     0.58942   0.04692   0.96076   0.00000  Uiso   1.00
C110   C     0.64730   0.10667   0.15417   0.00000  Uiso   1.00
C111   C     0.65242   0.17167   0.17365   0.00000  Uiso   1.00
C112   C     0.70893   0.19580   0.18812   0.00000  Uiso   1.00
C113   C     0.58190   0.00334   0.17841   0.00000  Uiso   1.00
C114   C     0.53204   0.98146   0.21828   0.00000  Uiso   1.00
C115   C     0.53350   0.91860   0.25317   0.00000  Uiso   1.00
H116   H     0.71965   0.96685   0.12332   0.00000  Uiso   1.00
H117   H     0.70974   0.95848   0.00401   0.00000  Uiso   1.00
H118   H     0.79173   0.06061   0.16000   0.00000  Uiso   1.00
H119   H     0.67137   0.87044   0.20462   0.00000  Uiso   1.00
H120   H     0.67690   0.96664   0.87387   0.00000  Uiso   1.00
H121   H     0.84978   0.18198   0.20281   0.00000  Uiso   1.00
H122   H     0.59598   0.78096   0.29690   0.00000  Uiso   1.00
H123   H     0.55121   0.10109   0.13982   0.00000  Uiso   1.00
H124   H     0.53206   0.10009   0.02142   0.00000  Uiso   1.00
H125   H     0.61405   0.20222   0.17741   0.00000  Uiso   1.00
H126   H     0.49369   0.01205   0.22202   0.00000  Uiso   1.00
H127   H     0.53269   0.08158   0.88800   0.00000  Uiso   1.00
H128   H     0.70557   0.29692   0.21693   0.00000  Uiso   1.00
H129   H     0.45177   0.89590   0.31102   0.00000  Uiso   1.00
O130   O     0.59525   0.02104   0.80274   0.00000  Uiso   1.00
O131   O     0.82206   0.30356   0.23430   0.00000  Uiso   1.00
O132   O     0.48907   0.77743   0.35774   0.00000  Uiso   1.00
N133   N     0.64558   0.99381   0.89345   0.00000  Uiso   1.00
N134   N     0.80722   0.19516   0.20097   0.00000  Uiso   1.00
N135   N     0.56994   0.82024   0.28895   0.00000  Uiso   1.00
N136   N     0.56798   0.05566   0.90105   0.00000  Uiso   1.00
N137   N     0.72962   0.25700   0.20857   0.00000  Uiso   1.00
N138   N     0.49234   0.88209   0.29655   0.00000  Uiso   1.00
C139   C     0.58451   0.61580   0.16402   0.00000  Uiso   1.00
C140   C     0.52644   0.65168   0.15805   0.00000  Uiso   1.00
C141   C     0.48136   0.65192   0.20525   0.00000  Uiso   1.00
C142   C     0.43177   0.68775   0.19044   0.00000  Uiso   1.00
C143   C     0.34227   0.73827   0.19029   0.00000  Uiso   1.00
C144   C     0.63506   0.67069   0.14661   0.00000  Uiso   1.00
C145   C     0.68131   0.68690   0.18419   0.00000  Uiso   1.00
C146   C     0.72316   0.73873   0.15975   0.00000  Uiso   1.00
C147   C     0.80232   0.81873   0.14182   0.00000  Uiso   1.00
C148   C     0.58663   0.56835   0.11185   0.00000  Uiso   1.00
C149   C     0.59217   0.49851   0.12020   0.00000  Uiso   1.00
C150   C     0.59327   0.46418   0.06648   0.00000  Uiso   1.00
C151   C     0.59723   0.38528   0.99458   0.00000  Uiso   1.00
C152   C     0.57662   0.67901   0.05377   0.00000  Uiso   1.00
C153   C     0.52216   0.68602   0.09817   0.00000  Uiso   1.00
C154   C     0.47262   0.72185   0.08328   0.00000  Uiso   1.00
C155   C     0.42747   0.72214   0.13045   0.00000  Uiso   1.00
C156   C     0.63078   0.70503   0.08673   0.00000  Uiso   1.00
C157   C     0.67258   0.75684   0.06222   0.00000  Uiso   1.00
C158   C     0.71887   0.77313   0.09976   0.00000  Uiso   1.00
C159   C     0.58234   0.60268   0.05196   0.00000  Uiso   1.00
C160   C     0.58344   0.56845   0.99822   0.00000  Uiso   1.00
C161   C     0.58897   0.49857   0.00649   0.00000  Uiso   1.00
H162   H     0.58785   0.58907   0.21064   0.00000  Uiso   1.00
H163   H     0.48469   0.62535   0.25159   0.00000  Uiso   1.00
H164   H     0.68462   0.66032   0.23053   0.00000  Uiso   1.00
H165   H     0.59549   0.47196   0.16655   0.00000  Uiso   1.00
H166   H     0.36844   0.68072   0.27059   0.00000  Uiso   1.00
H167   H     0.79000   0.75446   0.22618   0.00000  Uiso   1.00
H168   H     0.60206   0.35726   0.09125   0.00000  Uiso   1.00
H169   H     0.57328   0.70574   0.00715   0.00000  Uiso   1.00
H170   H     0.46932   0.74842   0.03693   0.00000  Uiso   1.00
H171   H     0.66924   0.78339   0.01587   0.00000  Uiso   1.00
H172   H     0.58012   0.59503   0.95189   0.00000  Uiso   1.00
H173   H     0.35597   0.78062   0.09637   0.00000  Uiso   1.00
H174   H     0.77753   0.85435   0.05195   0.00000  Uiso   1.00
H175   H     0.58959   0.45715   0.91703   0.00000  Uiso   1.00
O176   O     0.29409   0.75666   0.20675   0.00000  Uiso   1.00
O177   O     0.84716   0.85338   0.14848   0.00000  Uiso   1.00
O178   O     0.60059   0.33227   0.97146   0.00000  Uiso   1.00
N179   N     0.37977   0.69837   0.22550   0.00000  Uiso   1.00
N180   N     0.77389   0.76731   0.18397   0.00000  Uiso   1.00
N181   N     0.59820   0.39597   0.05783   0.00000  Uiso   1.00
N182   N     0.37305   0.75212   0.13175   0.00000  Uiso   1.00
N183   N     0.76718   0.82106   0.09023   0.00000  Uiso   1.00
N184   N     0.59149   0.44972   0.96409   0.00000  Uiso   1.00
C185   C     0.37770   0.49449   0.38962   0.00000  Uiso   1.00
C186   C     0.40552   0.44209   0.35102   0.00000  Uiso   1.00
C187   C     0.43311   0.45536   0.29094   0.00000  Uiso   1.00
C188   C     0.45576   0.40050   0.26363   0.00000  Uiso   1.00
C189   C     0.49971   0.32915   0.19888   0.00000  Uiso   1.00
C190   C     0.40862   0.49047   0.45150   0.00000  Uiso   1.00
C191   C     0.43880   0.54442   0.47591   0.00000  Uiso   1.00
C192   C     0.46404   0.53029   0.53319   0.00000  Uiso   1.00
C193   C     0.51277   0.53406   0.62448   0.00000  Uiso   1.00
C194   C     0.31292   0.46798   0.40631   0.00000  Uiso   1.00
C195   C     0.26262   0.50301   0.39274   0.00000  Uiso   1.00
C196   C     0.20729   0.46995   0.41198   0.00000  Uiso   1.00
C197   C     0.10742   0.43879   0.43310   0.00000  Uiso   1.00
C198   C     0.36887   0.37348   0.44795   0.00000  Uiso   1.00
C199   C     0.40073   0.37636   0.38270   0.00000  Uiso   1.00
C200   C     0.42333   0.32147   0.35547   0.00000  Uiso   1.00
C201   C     0.45095   0.33465   0.29536   0.00000  Uiso   1.00
C202   C     0.40382   0.42475   0.48318   0.00000  Uiso   1.00
C203   C     0.42902   0.41053   0.54044   0.00000  Uiso   1.00
C204   C     0.45924   0.46444   0.56493   0.00000  Uiso   1.00
C205   C     0.30811   0.40224   0.43799   0.00000  Uiso   1.00
C206   C     0.25285   0.36912   0.45727   0.00000  Uiso   1.00
C207   C     0.20248   0.40410   0.44372   0.00000  Uiso   1.00
H208   H     0.38144   0.54566   0.36496   0.00000  Uiso   1.00
H209   H     0.43682   0.50623   0.26644   0.00000  Uiso   1.00
H210   H     0.44250   0.59528   0.45139   0.00000  Uiso   1.00
H211   H     0.26635   0.55388   0.36822   0.00000  Uiso   1.00
H212   H     0.49612   0.43353   0.17120   0.00000  Uiso   1.00
H213   H     0.50808   0.62131   0.56118   0.00000  Uiso   1.00
H214   H     0.13664   0.53400   0.38581   0.00000  Uiso   1.00
H215   H     0.36513   0.32230   0.47261   0.00000  Uiso   1.00
H216   H     0.41961   0.27061   0.38000   0.00000  Uiso   1.00
H217   H     0.42530   0.35966   0.56495   0.00000  Uiso   1.00
H218   H     0.24915   0.31826   0.48178   0.00000  Uiso   1.00
H219   H     0.48216   0.24230   0.26336   0.00000  Uiso   1.00
H220   H     0.49412   0.43007   0.65335   0.00000  Uiso   1.00
H221   H     0.12268   0.34276   0.47798   0.00000  Uiso   1.00
O222   O     0.52529   0.30795   0.15442   0.00000  Uiso   1.00
O223   O     0.54097   0.55430   0.66607   0.00000  Uiso   1.00
O224   O     0.05366   0.43975   0.43598   0.00000  Uiso   1.00
N225   N     0.48535   0.39562   0.20559   0.00000  Uiso   1.00
N226   N     0.49654   0.57117   0.57020   0.00000  Uiso   1.00
N227   N     0.14927   0.48955   0.40626   0.00000  Uiso   1.00
N228   N     0.47783   0.29271   0.25519   0.00000  Uiso   1.00
N229   N     0.48902   0.46827   0.61979   0.00000  Uiso   1.00
N230   N     0.14176   0.38665   0.45585   0.00000  Uiso   1.00
C231   C     0.14420   0.74244   0.22178   0.00000  Uiso   1.00
C232   C     0.12150   0.66820   0.23839   0.00000  Uiso   1.00
C233   C     0.15356   0.61178   0.22868   0.00000  Uiso   1.00
C234   C     0.12487   0.54815   0.24712   0.00000  Uiso   1.00
C235   C     0.09855   0.43392   0.26881   0.00000  Uiso   1.00
C236   C     0.13778   0.77641   0.28270   0.00000  Uiso   1.00
C237   C     0.18353   0.81098   0.31024   0.00000  Uiso   1.00
C238   C     0.16854   0.83845   0.36597   0.00000  Uiso   1.00
C239   C     0.16749   0.89226   0.45643   0.00000  Uiso   1.00
C240   C     0.09933   0.77404   0.17851   0.00000  Uiso   1.00
C241   C     0.11274   0.80663   0.11846   0.00000  Uiso   1.00
C242   C     0.06537   0.83212   0.08647   0.00000  Uiso   1.00
C243   C     0.00462   0.88225   0.01516   0.00000  Uiso   1.00
C244   C     0.03623   0.72978   0.27177   0.00000  Uiso   1.00
C245   C     0.06285   0.66132   0.26555   0.00000  Uiso   1.00
C246   C     0.03410   0.59776   0.28400   0.00000  Uiso   1.00
C247   C     0.06611   0.54126   0.27432   0.00000  Uiso   1.00
C248   C     0.07914   0.76953   0.30986   0.00000  Uiso   1.00
C249   C     0.06407   0.79696   0.36556   0.00000  Uiso   1.00
C250   C     0.10978   0.83156   0.39318   0.00000  Uiso   1.00
C251   C     0.04068   0.76716   0.20566   0.00000  Uiso   1.00
C252   C     0.99328   0.79261   0.17377   0.00000  Uiso   1.00
C253   C     0.00662   0.82523   0.11368   0.00000  Uiso   1.00
H254   H     0.18986   0.74780   0.20064   0.00000  Uiso   1.00
H255   H     0.19895   0.61713   0.20767   0.00000  Uiso   1.00
H256   H     0.22891   0.81630   0.28921   0.00000  Uiso   1.00
H257   H     0.15813   0.81195   0.09746   0.00000  Uiso   1.00
H258   H     0.18317   0.46921   0.22746   0.00000  Uiso   1.00
H259   H     0.24634   0.88920   0.39939   0.00000  Uiso   1.00
H260   H     0.09709   0.88002   0.99503   0.00000  Uiso   1.00
H261   H     0.99056   0.72442   0.29292   0.00000  Uiso   1.00
H262   H     0.98872   0.59246   0.30501   0.00000  Uiso   1.00
H263   H     0.01868   0.79163   0.38656   0.00000  Uiso   1.00
H264   H     0.94790   0.78728   0.19480   0.00000  Uiso   1.00
H265   H     0.01254   0.44919   0.30647   0.00000  Uiso   1.00
H266   H     0.07571   0.86918   0.47840   0.00000  Uiso   1.00
H267   H     0.92646   0.86000   0.07404   0.00000  Uiso   1.00
O268   O     0.10024   0.37281   0.27328   0.00000  Uiso   1.00
O269   O     0.18312   0.92383   0.49883   0.00000  Uiso   1.00
O270   O     0.98731   0.91179   0.96833   0.00000  Uiso   1.00
N271   N     0.14326   0.48261   0.24439   0.00000  Uiso   1.00
N272   N     0.20233   0.87526   0.40513   0.00000  Uiso   1.00
N273   N     0.06279   0.86670   0.02710   0.00000  Uiso   1.00
N274   N     0.05145   0.47183   0.28690   0.00000  Uiso   1.00
N275   N     0.11051   0.86449   0.44765   0.00000  Uiso   1.00
N276   N     0.97098   0.85593   0.06961   0.00000  Uiso   1.00
C277   C     0.76978   0.38810   0.90312   0.00000  Uiso   1.00
C278   C     0.82736   0.41480   0.86498   0.00000  Uiso   1.00
C279   C     0.87634   0.37725   0.85285   0.00000  Uiso   1.00
C280   C     0.92470   0.41098   0.81700   0.00000  Uiso   1.00
C281   C     0.01420   0.44197   0.76123   0.00000  Uiso   1.00
C282   C     0.71903   0.40172   0.85994   0.00000  Uiso   1.00
C283   C     0.67693   0.35317   0.84359   0.00000  Uiso   1.00
C284   C     0.63409   0.37588   0.80349   0.00000  Uiso   1.00
C285   C     0.55537   0.38656   0.73994   0.00000  Uiso   1.00
C286   C     0.76212   0.43458   0.95557   0.00000  Uiso   1.00
C287   C     0.75624   0.41366   0.01963   0.00000  Uiso   1.00
C288   C     0.74967   0.46404   0.06005   0.00000  Uiso   1.00
C289   C     0.73786   0.52574   0.14498   0.00000  Uiso   1.00
C290   C     0.76857   0.51476   0.86101   0.00000  Uiso   1.00
C291   C     0.82670   0.48360   0.84211   0.00000  Uiso   1.00
C292   C     0.87500   0.51740   0.80627   0.00000  Uiso   1.00
C293   C     0.92405   0.47990   0.79409   0.00000  Uiso   1.00
C294   C     0.71837   0.47051   0.83707   0.00000  Uiso   1.00
C295   C     0.67558   0.49331   0.79700   0.00000  Uiso   1.00
C296   C     0.63343   0.44481   0.78058   0.00000  Uiso   1.00
C297   C     0.76147   0.50338   0.93270   0.00000  Uiso   1.00
C298   C     0.75490   0.55380   0.97304   0.00000  Uiso   1.00
C299   C     0.74901   0.53296   0.03714   0.00000  Uiso   1.00
H300   H     0.77029   0.33454   0.92092   0.00000  Uiso   1.00
H301   H     0.87683   0.32401   0.87056   0.00000  Uiso   1.00
H302   H     0.67744   0.29993   0.86130   0.00000  Uiso   1.00
H303   H     0.75675   0.36041   0.03731   0.00000  Uiso   1.00
H304   H     0.99465   0.34268   0.80461   0.00000  Uiso   1.00
H305   H     0.57422   0.29190   0.78510   0.00000  Uiso   1.00
H306   H     0.74144   0.41944   0.15626   0.00000  Uiso   1.00
H307   H     0.76806   0.56833   0.84321   0.00000  Uiso   1.00
H308   H     0.87448   0.57064   0.78857   0.00000  Uiso   1.00
H309   H     0.67509   0.54655   0.77931   0.00000  Uiso   1.00
H310   H     0.75439   0.60704   0.95532   0.00000  Uiso   1.00
H311   H     0.99274   0.54285   0.73806   0.00000  Uiso   1.00
H312   H     0.57230   0.49207   0.71856   0.00000  Uiso   1.00
H313   H     0.73953   0.61961   0.08971   0.00000  Uiso   1.00
O314   O     0.06374   0.44005   0.73678   0.00000  Uiso   1.00
O315   O     0.51214   0.37344   0.71120   0.00000  Uiso   1.00
O316   O     0.73153   0.54077   0.19814   0.00000  Uiso   1.00
N317   N     0.97960   0.38947   0.79646   0.00000  Uiso   1.00
N318   N     0.58653   0.34200   0.77821   0.00000  Uiso   1.00
N319   N     0.74285   0.46124   0.12521   0.00000  Uiso   1.00
N320   N     0.97857   0.49718   0.76065   0.00000  Uiso   1.00
N321   N     0.58550   0.44971   0.74240   0.00000  Uiso   1.00
N322   N     0.74182   0.56895   0.08940   0.00000  Uiso   1.00
C323   C     0.01960   0.19990   0.04319   0.00000  Uiso   1.00
C324   C     0.00163   0.23586   0.10072   0.00000  Uiso   1.00
C325   C     0.98403   0.30210   0.09966   0.00000  Uiso   1.00
C326   C     0.96936   0.32562   0.15736   0.00000  Uiso   1.00
C327   C     0.94100   0.38772   0.23806   0.00000  Uiso   1.00
C328   C     0.97847   0.13509   0.04698   0.00000  Uiso   1.00
C329   C     0.94142   0.11661   0.00073   0.00000  Uiso   1.00
C330   C     0.90726   0.05529   0.01319   0.00000  Uiso   1.00
C331   C     0.84299   0.96093   0.01043   0.00000  Uiso   1.00
C332   C     0.08227   0.17665   0.05339   0.00000  Uiso   1.00
C333   C     0.13248   0.19309   0.01252   0.00000  Uiso   1.00
C334   C     0.18572   0.16675   0.03036   0.00000  Uiso   1.00
C335   C     0.28260   0.13691   0.03756   0.00000  Uiso   1.00
C336   C     0.02484   0.12386   0.14754   0.00000  Uiso   1.00
C337   C     0.00448   0.19455   0.15740   0.00000  Uiso   1.00
C338   C     0.98983   0.21797   0.21511   0.00000  Uiso   1.00
C339   C     0.97222   0.28424   0.21414   0.00000  Uiso   1.00
C340   C     0.98132   0.09379   0.10365   0.00000  Uiso   1.00
C341   C     0.94722   0.03248   0.11618   0.00000  Uiso   1.00
C342   C     0.91011   0.01391   0.06996   0.00000  Uiso   1.00
C343   C     0.08512   0.13535   0.11007   0.00000  Uiso   1.00
C344   C     0.13829   0.10896   0.12797   0.00000  Uiso   1.00
C345   C     0.18857   0.12537   0.08714   0.00000  Uiso   1.00
H346   H     0.01737   0.23206   0.99907   0.00000  Uiso   1.00
H347   H     0.98183   0.33405   0.05579   0.00000  Uiso   1.00
H348   H     0.93922   0.14858   0.95687   0.00000  Uiso   1.00
H349   H     0.13026   0.22506   0.96867   0.00000  Uiso   1.00
H350   H     0.94365   0.42890   0.14367   0.00000  Uiso   1.00
H351   H     0.85384   0.03783   0.93509   0.00000  Uiso   1.00
H352   H     0.25668   0.19908   0.95995   0.00000  Uiso   1.00
H353   H     0.02706   0.09170   0.19167   0.00000  Uiso   1.00
H354   H     0.99204   0.18600   0.25896   0.00000  Uiso   1.00
H355   H     0.94944   0.00053   0.16004   0.00000  Uiso   1.00
H356   H     0.14047   0.07700   0.17184   0.00000  Uiso   1.00
H357   H     0.95194   0.30874   0.30857   0.00000  Uiso   1.00
H358   H     0.86212   0.91766   0.09999   0.00000  Uiso   1.00
H359   H     0.26496   0.07892   0.12486   0.00000  Uiso   1.00
O360   O     0.92456   0.43337   0.26691   0.00000  Uiso   1.00
O361   O     0.80674   0.92029   0.99326   0.00000  Uiso   1.00
O362   O     0.33526   0.13186   0.02588   0.00000  Uiso   1.00
N363   N     0.95042   0.38769   0.17324   0.00000  Uiso   1.00
N364   N     0.86644   0.02206   0.97824   0.00000  Uiso   1.00
N365   N     0.24306   0.17281   0.00148   0.00000  Uiso   1.00
N366   N     0.95488   0.32303   0.26198   0.00000  Uiso   1.00
N367   N     0.87090   0.95740   0.06697   0.00000  Uiso   1.00
N368   N     0.24752   0.10815   0.09021   0.00000  Uiso   1.00
C369   C     0.20001   0.19692   0.74976   0.00000  Uiso   1.00
C370   C     0.26228   0.18007   0.76913   0.00000  Uiso   1.00
C371   C     0.27860   0.16586   0.83046   0.00000  Uiso   1.00
C372   C     0.33778   0.15167   0.83833   0.00000  Uiso   1.00
C373   C     0.42818   0.12547   0.87627   0.00000  Uiso   1.00
C374   C     0.18185   0.14502   0.70477   0.00000  Uiso   1.00
C375   C     0.13054   0.10135   0.71199   0.00000  Uiso   1.00
C376   C     0.12202   0.05766   0.66567   0.00000  Uiso   1.00
C377   C     0.08753   0.97707   0.60367   0.00000  Uiso   1.00
C378   C     0.20802   0.26571   0.71021   0.00000  Uiso   1.00
C379   C     0.17870   0.32352   0.72197   0.00000  Uiso   1.00
C380   C     0.19220   0.38144   0.68022   0.00000  Uiso   1.00
C381   C     0.19835   0.48824   0.62665   0.00000  Uiso   1.00
C382   C     0.27609   0.19698   0.65467   0.00000  Uiso   1.00
C383   C     0.30360   0.18010   0.71748   0.00000  Uiso   1.00
C384   C     0.36277   0.16593   0.72526   0.00000  Uiso   1.00
C385   C     0.37918   0.15171   0.78659   0.00000  Uiso   1.00
C386   C     0.22317   0.14505   0.65313   0.00000  Uiso   1.00
C387   C     0.21472   0.10142   0.60679   0.00000  Uiso   1.00
C388   C     0.16342   0.05769   0.61393   0.00000  Uiso   1.00
C389   C     0.24935   0.26575   0.65856   0.00000  Uiso   1.00
C390   C     0.26288   0.32359   0.61678   0.00000  Uiso   1.00
C391   C     0.23360   0.38147   0.62848   0.00000  Uiso   1.00
H392   H     0.16783   0.19689   0.78996   0.00000  Uiso   1.00
H393   H     0.24660   0.16583   0.87042   0.00000  Uiso   1.00
H394   H     0.09857   0.10134   0.75196   0.00000  Uiso   1.00
H395   H     0.14673   0.32347   0.76194   0.00000  Uiso   1.00
H396   H     0.35216   0.13139   0.93684   0.00000  Uiso   1.00
H397   H     0.04001   0.99541   0.68705   0.00000  Uiso   1.00
H398   H     0.14156   0.46383   0.70811   0.00000  Uiso   1.00
H399   H     0.30826   0.19701   0.61446   0.00000  Uiso   1.00
H400   H     0.39474   0.16596   0.68528   0.00000  Uiso   1.00
H401   H     0.24671   0.10146   0.56683   0.00000  Uiso   1.00
H402   H     0.29487   0.32360   0.57681   0.00000  Uiso   1.00
H403   H     0.47239   0.13149   0.78658   0.00000  Uiso   1.00
H404   H     0.16024   0.99551   0.53678   0.00000  Uiso   1.00
H405   H     0.26179   0.46393   0.55785   0.00000  Uiso   1.00
O406   O     0.46663   0.11099   0.91146   0.00000  Uiso   1.00
O407   O     0.05710   0.93260   0.58374   0.00000  Uiso   1.00
O408   O     0.19033   0.54715   0.61137   0.00000  Uiso   1.00
N409   N     0.36859   0.13569   0.89175   0.00000  Uiso   1.00
N410   N     0.07675   0.00855   0.65822   0.00000  Uiso   1.00
N411   N     0.17168   0.44647   0.67790   0.00000  Uiso   1.00
N412   N     0.43329   0.13575   0.81090   0.00000  Uiso   1.00
N413   N     0.14145   0.00860   0.57737   0.00000  Uiso   1.00
N414   N     0.23638   0.44653   0.59705   0.00000  Uiso   1.00
C415   C     0.41859   0.77706   0.64188   0.00000  Uiso   1.00
C416   C     0.42943   0.71782   0.69023   0.00000  Uiso   1.00
C417   C     0.48415   0.70354   0.71398   0.00000  Uiso   1.00
C418   C     0.48473   0.64699   0.75784   0.00000  Uiso   1.00
C419   C     0.50953   0.56118   0.82994   0.00000  Uiso   1.00
C420   C     0.39008   0.74535   0.58754   0.00000  Uiso   1.00
C421   C     0.41171   0.75424   0.52496   0.00000  Uiso   1.00
C422   C     0.37917   0.72088   0.48238   0.00000  Uiso   1.00
C423   C     0.34286   0.67786   0.39504   0.00000  Uiso   1.00
C424   C     0.37028   0.81659   0.67230   0.00000  Uiso   1.00
C425   C     0.37524   0.88538   0.68097   0.00000  Uiso   1.00
C426   C     0.32602   0.91199   0.70973   0.00000  Uiso   1.00
C427   C     0.25895   0.97957   0.75400   0.00000  Uiso   1.00
C428   C     0.32232   0.70202   0.67752   0.00000  Uiso   1.00
C429   C     0.37714   0.67705   0.70958   0.00000  Uiso   1.00
C430   C     0.37764   0.62051   0.75342   0.00000  Uiso   1.00
C431   C     0.43235   0.60616   0.77724   0.00000  Uiso   1.00
C432   C     0.33780   0.70459   0.60689   0.00000  Uiso   1.00
C433   C     0.30521   0.67122   0.56439   0.00000  Uiso   1.00
C434   C     0.32679   0.68005   0.50177   0.00000  Uiso   1.00
C435   C     0.31799   0.77583   0.69166   0.00000  Uiso   1.00
C436   C     0.26874   0.80234   0.72040   0.00000  Uiso   1.00
C437   C     0.27363   0.87116   0.72912   0.00000  Uiso   1.00
H438   H     0.45929   0.80880   0.62680   0.00000  Uiso   1.00
H439   H     0.52460   0.73510   0.69899   0.00000  Uiso   1.00
H440   H     0.45218   0.78580   0.50999   0.00000  Uiso   1.00
H441   H     0.41571   0.91690   0.66598   0.00000  Uiso   1.00
H442   H     0.57395   0.63540   0.78753   0.00000  Uiso   1.00
H443   H     0.42123   0.74232   0.38902   0.00000  Uiso   1.00
H444   H     0.34434   0.01879   0.71795   0.00000  Uiso   1.00
H445   H     0.28161   0.67028   0.69259   0.00000  Uiso   1.00
H446   H     0.33717   0.58898   0.76839   0.00000  Uiso   1.00
H447   H     0.26475   0.63968   0.57939   0.00000  Uiso   1.00
H448   H     0.22829   0.77079   0.73538   0.00000  Uiso   1.00
H449   H     0.42183   0.51680   0.84386   0.00000  Uiso   1.00
H450   H     0.26911   0.62372   0.44535   0.00000  Uiso   1.00
H451   H     0.19222   0.90019   0.77428   0.00000  Uiso   1.00
O452   O     0.53765   0.52510   0.86436   0.00000  Uiso   1.00
O453   O     0.33728   0.66539   0.34153   0.00000  Uiso   1.00
O454   O     0.23640   0.02811   0.77307   0.00000  Uiso   1.00
N455   N     0.53052   0.61865   0.79040   0.00000  Uiso   1.00
N456   N     0.38774   0.71861   0.41782   0.00000  Uiso   1.00
N457   N     0.31585   0.97709   0.72532   0.00000  Uiso   1.00
N458   N     0.44867   0.55483   0.82071   0.00000  Uiso   1.00
N459   N     0.30589   0.65479   0.44813   0.00000  Uiso   1.00
N460   N     0.23400   0.91327   0.75563   0.00000  Uiso   1.00
C461   C     0.34993   0.00051   0.35958   0.00000  Uiso   1.00
C462   C     0.31473   0.06245   0.37053   0.00000  Uiso   1.00
C463   C     0.26656   0.06373   0.41403   0.00000  Uiso   1.00
C464   C     0.24040   0.12540   0.41681   0.00000  Uiso   1.00
C465   C     0.18247   0.21272   0.43976   0.00000  Uiso   1.00
C466   C     0.34675   0.99093   0.28987   0.00000  Uiso   1.00
C467   C     0.32552   0.93207   0.26557   0.00000  Uiso   1.00
C468   C     0.32632   0.93354   0.20045   0.00000  Uiso   1.00
C469   C     0.31815   0.90980   0.09818   0.00000  Uiso   1.00
C470   C     0.41517   0.02163   0.36870   0.00000  Uiso   1.00
C471   C     0.45147   0.98858   0.41067   0.00000  Uiso   1.00
C472   C     0.50988   0.01588   0.41190   0.00000  Uiso   1.00
C473   C     0.60794   0.03981   0.43203   0.00000  Uiso   1.00
C474   C     0.38911   0.10776   0.28713   0.00000  Uiso   1.00
C475   C     0.33601   0.12071   0.33117   0.00000  Uiso   1.00
C476   C     0.30991   0.18239   0.33388   0.00000  Uiso   1.00
C477   C     0.26172   0.18377   0.37739   0.00000  Uiso   1.00
C478   C     0.36803   0.04918   0.25052   0.00000  Uiso   1.00
C479   C     0.36886   0.05073   0.18542   0.00000  Uiso   1.00
C480   C     0.34764   0.99190   0.16102   0.00000  Uiso   1.00
C481   C     0.43645   0.07989   0.32935   0.00000  Uiso   1.00
C482   C     0.49482   0.10724   0.33051   0.00000  Uiso   1.00
C483   C     0.53120   0.07424   0.37248   0.00000  Uiso   1.00
H484   H     0.33337   0.95515   0.39022   0.00000  Uiso   1.00
H485   H     0.25010   0.01864   0.44448   0.00000  Uiso   1.00
H486   H     0.30906   0.88700   0.29603   0.00000  Uiso   1.00
H487   H     0.43499   0.94350   0.44111   0.00000  Uiso   1.00
H488   H     0.16717   0.11471   0.48726   0.00000  Uiso   1.00
H489   H     0.29149   0.83713   0.17427   0.00000  Uiso   1.00
H490   H     0.55704   0.95627   0.48019   0.00000  Uiso   1.00
H491   H     0.40568   0.15311   0.25650   0.00000  Uiso   1.00
H492   H     0.32639   0.22747   0.30342   0.00000  Uiso   1.00
H493   H     0.38534   0.09582   0.15498   0.00000  Uiso   1.00
H494   H     0.51127   0.15232   0.30005   0.00000  Uiso   1.00
H495   H     0.22908   0.28420   0.37278   0.00000  Uiso   1.00
H496   H     0.35340   0.00662   0.05978   0.00000  Uiso   1.00
H497   H     0.61895   0.12576   0.36570   0.00000  Uiso   1.00
O498   O     0.14464   0.24479   0.46329   0.00000  Uiso   1.00
O499   O     0.30776   0.88061   0.05265   0.00000  Uiso   1.00
O500   O     0.65615   0.03692   0.45401   0.00000  Uiso   1.00
N501   N     0.19263   0.14440   0.45389   0.00000  Uiso   1.00
N502   N     0.30885   0.88488   0.16125   0.00000  Uiso   1.00
N503   N     0.55712   0.99625   0.44725   0.00000  Uiso   1.00
N504   N     0.22594   0.23560   0.39228   0.00000  Uiso   1.00
N505   N     0.34217   0.97608   0.09965   0.00000  Uiso   1.00
N506   N     0.59044   0.08746   0.38565   0.00000  Uiso   1.00
C507   C     0.78845   0.50596   0.53711   0.00000  Uiso   1.00
C508   C     0.84209   0.55794   0.52767   0.00000  Uiso   1.00
C509   C     0.84145   0.62614   0.53817   0.00000  Uiso   1.00
C510   C     0.89518   0.66531   0.52675   0.00000  Uiso   1.00
C511   C     0.97048   0.75031   0.51528   0.00000  Uiso   1.00
C512   C     0.78262   0.47662   0.47414   0.00000  Uiso   1.00
C513   C     0.73199   0.47644   0.43965   0.00000  Uiso   1.00
C514   C     0.73566   0.44715   0.38318   0.00000  Uiso   1.00
C515   C     0.71863   0.40585   0.28862   0.00000  Uiso   1.00
C516   C     0.80679   0.44789   0.58283   0.00000  Uiso   1.00
C517   C     0.77647   0.42353   0.63971   0.00000  Uiso   1.00
C518   C     0.80049   0.37003   0.67473   0.00000  Uiso   1.00
C519   C     0.82099   0.28411   0.74892   0.00000  Uiso   1.00
C520   C     0.88499   0.45425   0.49816   0.00000  Uiso   1.00
C521   C     0.89453   0.52985   0.50651   0.00000  Uiso   1.00
C522   C     0.94827   0.56893   0.49507   0.00000  Uiso   1.00
C523   C     0.94772   0.63718   0.50556   0.00000  Uiso   1.00
C524   C     0.83506   0.44854   0.45298   0.00000  Uiso   1.00
C525   C     0.83881   0.41924   0.39655   0.00000  Uiso   1.00
C526   C     0.78819   0.41902   0.36198   0.00000  Uiso   1.00
C527   C     0.85923   0.41980   0.56167   0.00000  Uiso   1.00
C528   C     0.88330   0.36632   0.59661   0.00000  Uiso   1.00
C529   C     0.85302   0.34189   0.65353   0.00000  Uiso   1.00
H530   H     0.74762   0.52783   0.55359   0.00000  Uiso   1.00
H531   H     0.80086   0.64786   0.55454   0.00000  Uiso   1.00
H532   H     0.69141   0.49818   0.45604   0.00000  Uiso   1.00
H533   H     0.73589   0.44527   0.65607   0.00000  Uiso   1.00
H534   H     0.88301   0.76856   0.54625   0.00000  Uiso   1.00
H535   H     0.65223   0.45293   0.33856   0.00000  Uiso   1.00
H536   H     0.74602   0.34136   0.76036   0.00000  Uiso   1.00
H537   H     0.92582   0.43239   0.48168   0.00000  Uiso   1.00
H538   H     0.98884   0.54718   0.47870   0.00000  Uiso   1.00
H539   H     0.87939   0.39750   0.38019   0.00000  Uiso   1.00
H540   H     0.92388   0.34460   0.58022   0.00000  Uiso   1.00
H541   H     0.03558   0.68685   0.48469   0.00000  Uiso   1.00
H542   H     0.80480   0.37121   0.27700   0.00000  Uiso   1.00
H543   H     0.89860   0.25966   0.69879   0.00000  Uiso   1.00
O544   O     0.99753   0.80495   0.51478   0.00000  Uiso   1.00
O545   O     0.69475   0.39084   0.24231   0.00000  Uiso   1.00
O546   O     0.81781   0.24448   0.79569   0.00000  Uiso   1.00
N547   N     0.91027   0.73357   0.53218   0.00000  Uiso   1.00
N548   N     0.69451   0.43848   0.33800   0.00000  Uiso   1.00
N549   N     0.78219   0.33417   0.73234   0.00000  Uiso   1.00
N550   N     0.99237   0.68960   0.49906   0.00000  Uiso   1.00
N551   N     0.77661   0.39452   0.30488   0.00000  Uiso   1.00
N552   N     0.86429   0.29020   0.69921   0.00000  Uiso   1.00
