data_job_03350
_audit_creation_date              2018-12-19
_audit_creation_method            'Materials Studio'
_symmetry_space_group_name_H-M    'P1'
_symmetry_Int_Tables_number       1
_symmetry_cell_setting            triclinic
loop_
_symmetry_equiv_pos_as_xyz
  x,y,z
_cell_length_a                    20.2430
_cell_length_b                    27.4195
_cell_length_c                    9.7923
_cell_angle_alpha                 90.0000
_cell_angle_beta                  90.0000
_cell_angle_gamma                 90.0000
loop_
_atom_site_label
_atom_site_type_symbol
_atom_site_fract_x
_atom_site_fract_y
_atom_site_fract_z
_atom_site_U_iso_or_equiv
_atom_site_adp_type
_atom_site_occupancy
C1     C     0.45377   0.90127   0.77238   0.00000  Uiso   1.00
C2     C     0.52602   0.90354   0.81597   0.00000  Uiso   1.00
C3     C     0.55386   0.93869   0.90014   0.00000  Uiso   1.00
C4     C     0.62086   0.93436   0.92794   0.00000  Uiso   1.00
C5     C     0.72731   0.94367   0.00396   0.00000  Uiso   1.00
C6     C     0.42883   0.85114   0.81580   0.00000  Uiso   1.00
C7     C     0.37495   0.84223   0.89981   0.00000  Uiso   1.00
C8     C     0.36013   0.79378   0.92745   0.00000  Uiso   1.00
C9     C     0.31566   0.72173   0.00312   0.00000  Uiso   1.00
C10    C     0.45406   0.90104   0.61667   0.00000  Uiso   1.00
C11    C     0.42137   0.93408   0.53323   0.00000  Uiso   1.00
C12    C     0.42778   0.92763   0.39322   0.00000  Uiso   1.00
C13    C     0.42247   0.93306   0.15971   0.00000  Uiso   1.00
C14    C     0.52325   0.83108   0.67209   0.00000  Uiso   1.00
C15    C     0.56376   0.86541   0.76149   0.00000  Uiso   1.00
C16    C     0.63074   0.86103   0.78917   0.00000  Uiso   1.00
C17    C     0.65867   0.89617   0.87336   0.00000  Uiso   1.00
C18    C     0.46657   0.81301   0.76133   0.00000  Uiso   1.00
C19    C     0.45182   0.76456   0.78884   0.00000  Uiso   1.00
C20    C     0.39794   0.75559   0.87288   0.00000  Uiso   1.00
C21    C     0.49180   0.86291   0.56219   0.00000  Uiso   1.00
C22    C     0.49825   0.85641   0.42227   0.00000  Uiso   1.00
C23    C     0.46558   0.88944   0.33864   0.00000  Uiso   1.00
H24    H     0.42438   0.93096   0.81480   0.00000  Uiso   1.00
H25    H     0.52464   0.96819   0.94229   0.00000  Uiso   1.00
H26    H     0.34575   0.87174   0.94194   0.00000  Uiso   1.00
H27    H     0.39217   0.96358   0.57543   0.00000  Uiso   1.00
H28    H     0.65242   0.99265   0.05964   0.00000  Uiso   1.00
H29    H     0.27522   0.78928   0.05888   0.00000  Uiso   1.00
H30    H     0.37310   0.98293   0.28601   0.00000  Uiso   1.00
H31    H     0.55263   0.80139   0.62968   0.00000  Uiso   1.00
H32    H     0.65993   0.83152   0.74700   0.00000  Uiso   1.00
H33    H     0.48104   0.73507   0.74666   0.00000  Uiso   1.00
H34    H     0.52746   0.82690   0.38015   0.00000  Uiso   1.00
H35    H     0.76223   0.88172   0.90115   0.00000  Uiso   1.00
H36    H     0.38502   0.67835   0.90038   0.00000  Uiso   1.00
H37    H     0.48291   0.87200   0.12752   0.00000  Uiso   1.00
O38    O     0.77559   0.95933   0.06096   0.00000  Uiso   1.00
O39    O     0.28071   0.69252   0.05993   0.00000  Uiso   1.00
O40    O     0.40913   0.94658   0.04596   0.00000  Uiso   1.00
N41    N     0.66355   0.96242   0.00622   0.00000  Uiso   1.00
N42    N     0.31089   0.77228   0.00552   0.00000  Uiso   1.00
N43    N     0.40238   0.95331   0.28296   0.00000  Uiso   1.00
N44    N     0.72263   0.90272   0.92093   0.00000  Uiso   1.00
N45    N     0.36997   0.71259   0.92024   0.00000  Uiso   1.00
N46    N     0.46147   0.89362   0.19767   0.00000  Uiso   1.00
C47    C     0.04623   0.09873   0.27238   0.00000  Uiso   1.00
C48    C     0.97398   0.09646   0.31597   0.00000  Uiso   1.00
C49    C     0.94614   0.06131   0.40014   0.00000  Uiso   1.00
C50    C     0.87914   0.06564   0.42794   0.00000  Uiso   1.00
C51    C     0.77269   0.05633   0.50396   0.00000  Uiso   1.00
C52    C     0.07117   0.14886   0.31580   0.00000  Uiso   1.00
C53    C     0.12505   0.15777   0.39981   0.00000  Uiso   1.00
C54    C     0.13987   0.20622   0.42745   0.00000  Uiso   1.00
C55    C     0.18434   0.27827   0.50312   0.00000  Uiso   1.00
C56    C     0.04594   0.09896   0.11667   0.00000  Uiso   1.00
C57    C     0.07863   0.06592   0.03323   0.00000  Uiso   1.00
C58    C     0.07222   0.07237   0.89322   0.00000  Uiso   1.00
C59    C     0.07753   0.06694   0.65971   0.00000  Uiso   1.00
C60    C     0.97675   0.16892   0.17209   0.00000  Uiso   1.00
C61    C     0.93624   0.13459   0.26149   0.00000  Uiso   1.00
C62    C     0.86926   0.13897   0.28917   0.00000  Uiso   1.00
C63    C     0.84133   0.10383   0.37336   0.00000  Uiso   1.00
C64    C     0.03343   0.18699   0.26133   0.00000  Uiso   1.00
C65    C     0.04818   0.23544   0.28884   0.00000  Uiso   1.00
C66    C     0.10206   0.24441   0.37288   0.00000  Uiso   1.00
C67    C     0.00820   0.13709   0.06219   0.00000  Uiso   1.00
C68    C     0.00175   0.14359   0.92227   0.00000  Uiso   1.00
C69    C     0.03442   0.11056   0.83864   0.00000  Uiso   1.00
H70    H     0.07562   0.06904   0.31480   0.00000  Uiso   1.00
H71    H     0.97536   0.03181   0.44229   0.00000  Uiso   1.00
H72    H     0.15425   0.12826   0.44194   0.00000  Uiso   1.00
H73    H     0.10783   0.03642   0.07543   0.00000  Uiso   1.00
H74    H     0.84758   0.00735   0.55964   0.00000  Uiso   1.00
H75    H     0.22478   0.21072   0.55888   0.00000  Uiso   1.00
H76    H     0.12690   0.01707   0.78601   0.00000  Uiso   1.00
H77    H     0.94737   0.19861   0.12968   0.00000  Uiso   1.00
H78    H     0.84007   0.16848   0.24700   0.00000  Uiso   1.00
H79    H     0.01896   0.26493   0.24666   0.00000  Uiso   1.00
H80    H     0.97254   0.17310   0.88015   0.00000  Uiso   1.00
H81    H     0.73777   0.11828   0.40115   0.00000  Uiso   1.00
H82    H     0.11498   0.32165   0.40038   0.00000  Uiso   1.00
H83    H     0.01709   0.12800   0.62752   0.00000  Uiso   1.00
O84    O     0.72441   0.04067   0.56096   0.00000  Uiso   1.00
O85    O     0.21929   0.30748   0.55993   0.00000  Uiso   1.00
O86    O     0.09087   0.05342   0.54596   0.00000  Uiso   1.00
N87    N     0.83645   0.03758   0.50622   0.00000  Uiso   1.00
N88    N     0.18911   0.22772   0.50552   0.00000  Uiso   1.00
N89    N     0.09762   0.04669   0.78296   0.00000  Uiso   1.00
N90    N     0.77737   0.09728   0.42093   0.00000  Uiso   1.00
N91    N     0.13003   0.28741   0.42024   0.00000  Uiso   1.00
N92    N     0.03853   0.10638   0.69767   0.00000  Uiso   1.00
C93    C     0.54623   0.40127   0.72762   0.00000  Uiso   1.00
C94    C     0.47398   0.40354   0.68403   0.00000  Uiso   1.00
C95    C     0.44614   0.43869   0.59986   0.00000  Uiso   1.00
C96    C     0.37914   0.43436   0.57206   0.00000  Uiso   1.00
C97    C     0.27269   0.44367   0.49604   0.00000  Uiso   1.00
C98    C     0.57117   0.35114   0.68420   0.00000  Uiso   1.00
C99    C     0.62505   0.34223   0.60019   0.00000  Uiso   1.00
C100   C     0.63987   0.29378   0.57255   0.00000  Uiso   1.00
C101   C     0.68434   0.22173   0.49688   0.00000  Uiso   1.00
C102   C     0.54594   0.40104   0.88333   0.00000  Uiso   1.00
C103   C     0.57863   0.43408   0.96677   0.00000  Uiso   1.00
C104   C     0.57222   0.42763   0.10678   0.00000  Uiso   1.00
C105   C     0.57753   0.43306   0.34029   0.00000  Uiso   1.00
C106   C     0.47675   0.33108   0.82791   0.00000  Uiso   1.00
C107   C     0.43624   0.36541   0.73851   0.00000  Uiso   1.00
C108   C     0.36926   0.36103   0.71083   0.00000  Uiso   1.00
C109   C     0.34133   0.39617   0.62664   0.00000  Uiso   1.00
C110   C     0.53343   0.31301   0.73867   0.00000  Uiso   1.00
C111   C     0.54818   0.26456   0.71116   0.00000  Uiso   1.00
C112   C     0.60206   0.25559   0.62712   0.00000  Uiso   1.00
C113   C     0.50820   0.36291   0.93781   0.00000  Uiso   1.00
C114   C     0.50175   0.35641   0.07773   0.00000  Uiso   1.00
C115   C     0.53442   0.38944   0.16136   0.00000  Uiso   1.00
H116   H     0.57562   0.43096   0.68520   0.00000  Uiso   1.00
H117   H     0.47536   0.46819   0.55771   0.00000  Uiso   1.00
H118   H     0.65425   0.37174   0.55806   0.00000  Uiso   1.00
H119   H     0.60783   0.46358   0.92457   0.00000  Uiso   1.00
H120   H     0.34758   0.49265   0.44036   0.00000  Uiso   1.00
H121   H     0.72478   0.28928   0.44112   0.00000  Uiso   1.00
H122   H     0.62690   0.48293   0.21399   0.00000  Uiso   1.00
H123   H     0.44737   0.30139   0.87032   0.00000  Uiso   1.00
H124   H     0.34007   0.33152   0.75300   0.00000  Uiso   1.00
H125   H     0.51896   0.23507   0.75334   0.00000  Uiso   1.00
H126   H     0.47254   0.32690   0.11985   0.00000  Uiso   1.00
H127   H     0.23777   0.38172   0.59885   0.00000  Uiso   1.00
H128   H     0.61498   0.17835   0.59962   0.00000  Uiso   1.00
H129   H     0.51709   0.37200   0.37248   0.00000  Uiso   1.00
O130   O     0.22441   0.45933   0.43904   0.00000  Uiso   1.00
O131   O     0.71929   0.19252   0.44007   0.00000  Uiso   1.00
O132   O     0.59087   0.44658   0.45404   0.00000  Uiso   1.00
N133   N     0.33645   0.46242   0.49378   0.00000  Uiso   1.00
N134   N     0.68911   0.27228   0.49448   0.00000  Uiso   1.00
N135   N     0.59762   0.45331   0.21704   0.00000  Uiso   1.00
N136   N     0.27737   0.40272   0.57907   0.00000  Uiso   1.00
N137   N     0.63003   0.21259   0.57976   0.00000  Uiso   1.00
N138   N     0.53853   0.39362   0.30233   0.00000  Uiso   1.00
C139   C     0.95377   0.59873   0.22762   0.00000  Uiso   1.00
C140   C     0.02602   0.59646   0.18403   0.00000  Uiso   1.00
C141   C     0.05386   0.56131   0.09986   0.00000  Uiso   1.00
C142   C     0.12086   0.56564   0.07206   0.00000  Uiso   1.00
C143   C     0.22731   0.55633   0.99604   0.00000  Uiso   1.00
C144   C     0.92883   0.64886   0.18420   0.00000  Uiso   1.00
C145   C     0.87495   0.65777   0.10019   0.00000  Uiso   1.00
C146   C     0.86013   0.70622   0.07255   0.00000  Uiso   1.00
C147   C     0.81566   0.77827   0.99688   0.00000  Uiso   1.00
C148   C     0.95406   0.59896   0.38333   0.00000  Uiso   1.00
C149   C     0.92137   0.56592   0.46677   0.00000  Uiso   1.00
C150   C     0.92778   0.57237   0.60678   0.00000  Uiso   1.00
C151   C     0.92247   0.56694   0.84029   0.00000  Uiso   1.00
C152   C     0.02325   0.66892   0.32791   0.00000  Uiso   1.00
C153   C     0.06376   0.63459   0.23851   0.00000  Uiso   1.00
C154   C     0.13074   0.63897   0.21083   0.00000  Uiso   1.00
C155   C     0.15867   0.60383   0.12664   0.00000  Uiso   1.00
C156   C     0.96657   0.68699   0.23867   0.00000  Uiso   1.00
C157   C     0.95182   0.73544   0.21116   0.00000  Uiso   1.00
C158   C     0.89794   0.74441   0.12712   0.00000  Uiso   1.00
C159   C     0.99180   0.63709   0.43781   0.00000  Uiso   1.00
C160   C     0.99825   0.64359   0.57773   0.00000  Uiso   1.00
C161   C     0.96558   0.61056   0.66136   0.00000  Uiso   1.00
H162   H     0.92438   0.56904   0.18520   0.00000  Uiso   1.00
H163   H     0.02464   0.53181   0.05771   0.00000  Uiso   1.00
H164   H     0.84575   0.62826   0.05806   0.00000  Uiso   1.00
H165   H     0.89217   0.53642   0.42457   0.00000  Uiso   1.00
H166   H     0.15242   0.50735   0.94036   0.00000  Uiso   1.00
H167   H     0.77522   0.71072   0.94112   0.00000  Uiso   1.00
H168   H     0.87310   0.51707   0.71399   0.00000  Uiso   1.00
H169   H     0.05263   0.69861   0.37032   0.00000  Uiso   1.00
H170   H     0.15993   0.66848   0.25300   0.00000  Uiso   1.00
H171   H     0.98104   0.76493   0.25334   0.00000  Uiso   1.00
H172   H     0.02746   0.67310   0.61985   0.00000  Uiso   1.00
H173   H     0.26223   0.61828   0.09885   0.00000  Uiso   1.00
H174   H     0.88502   0.82165   0.09962   0.00000  Uiso   1.00
H175   H     0.98291   0.62800   0.87248   0.00000  Uiso   1.00
O176   O     0.27559   0.54067   0.93904   0.00000  Uiso   1.00
O177   O     0.78071   0.80748   0.94007   0.00000  Uiso   1.00
O178   O     0.90913   0.55342   0.95404   0.00000  Uiso   1.00
N179   N     0.16355   0.53758   0.99378   0.00000  Uiso   1.00
N180   N     0.81089   0.72772   0.99448   0.00000  Uiso   1.00
N181   N     0.90238   0.54669   0.71704   0.00000  Uiso   1.00
N182   N     0.22263   0.59728   0.07907   0.00000  Uiso   1.00
N183   N     0.86997   0.78741   0.07976   0.00000  Uiso   1.00
N184   N     0.96147   0.60638   0.80233   0.00000  Uiso   1.00
C185   C     0.54623   0.09873   0.22762   0.00000  Uiso   1.00
C186   C     0.47398   0.09646   0.18403   0.00000  Uiso   1.00
C187   C     0.44614   0.06131   0.09986   0.00000  Uiso   1.00
C188   C     0.37914   0.06564   0.07206   0.00000  Uiso   1.00
C189   C     0.27269   0.05633   0.99604   0.00000  Uiso   1.00
C190   C     0.57117   0.14886   0.18420   0.00000  Uiso   1.00
C191   C     0.62505   0.15777   0.10019   0.00000  Uiso   1.00
C192   C     0.63987   0.20622   0.07255   0.00000  Uiso   1.00
C193   C     0.68434   0.27827   0.99688   0.00000  Uiso   1.00
C194   C     0.54594   0.09896   0.38333   0.00000  Uiso   1.00
C195   C     0.57863   0.06592   0.46677   0.00000  Uiso   1.00
C196   C     0.57222   0.07237   0.60678   0.00000  Uiso   1.00
C197   C     0.57753   0.06694   0.84029   0.00000  Uiso   1.00
C198   C     0.47675   0.16892   0.32791   0.00000  Uiso   1.00
C199   C     0.43624   0.13459   0.23851   0.00000  Uiso   1.00
C200   C     0.36926   0.13897   0.21083   0.00000  Uiso   1.00
C201   C     0.34133   0.10383   0.12664   0.00000  Uiso   1.00
C202   C     0.53343   0.18699   0.23867   0.00000  Uiso   1.00
C203   C     0.54818   0.23544   0.21116   0.00000  Uiso   1.00
C204   C     0.60206   0.24441   0.12712   0.00000  Uiso   1.00
C205   C     0.50820   0.13709   0.43781   0.00000  Uiso   1.00
C206   C     0.50175   0.14359   0.57773   0.00000  Uiso   1.00
C207   C     0.53442   0.11056   0.66136   0.00000  Uiso   1.00
H208   H     0.57562   0.06904   0.18520   0.00000  Uiso   1.00
H209   H     0.47536   0.03181   0.05771   0.00000  Uiso   1.00
H210   H     0.65425   0.12826   0.05806   0.00000  Uiso   1.00
H211   H     0.60783   0.03642   0.42457   0.00000  Uiso   1.00
H212   H     0.34758   0.00735   0.94036   0.00000  Uiso   1.00
H213   H     0.72478   0.21072   0.94112   0.00000  Uiso   1.00
H214   H     0.62690   0.01707   0.71399   0.00000  Uiso   1.00
H215   H     0.44737   0.19861   0.37032   0.00000  Uiso   1.00
H216   H     0.34007   0.16848   0.25300   0.00000  Uiso   1.00
H217   H     0.51896   0.26493   0.25334   0.00000  Uiso   1.00
H218   H     0.47254   0.17310   0.61985   0.00000  Uiso   1.00
H219   H     0.23777   0.11828   0.09885   0.00000  Uiso   1.00
H220   H     0.61498   0.32165   0.09962   0.00000  Uiso   1.00
H221   H     0.51709   0.12800   0.87248   0.00000  Uiso   1.00
O222   O     0.22441   0.04067   0.93904   0.00000  Uiso   1.00
O223   O     0.71929   0.30748   0.94007   0.00000  Uiso   1.00
O224   O     0.59087   0.05342   0.95404   0.00000  Uiso   1.00
N225   N     0.33645   0.03758   0.99378   0.00000  Uiso   1.00
N226   N     0.68911   0.22772   0.99448   0.00000  Uiso   1.00
N227   N     0.59762   0.04669   0.71704   0.00000  Uiso   1.00
N228   N     0.27737   0.09728   0.07907   0.00000  Uiso   1.00
N229   N     0.63003   0.28741   0.07976   0.00000  Uiso   1.00
N230   N     0.53853   0.10638   0.80233   0.00000  Uiso   1.00
C231   C     0.95377   0.90127   0.72762   0.00000  Uiso   1.00
C232   C     0.02602   0.90354   0.68403   0.00000  Uiso   1.00
C233   C     0.05386   0.93869   0.59986   0.00000  Uiso   1.00
C234   C     0.12086   0.93436   0.57206   0.00000  Uiso   1.00
C235   C     0.22731   0.94367   0.49604   0.00000  Uiso   1.00
C236   C     0.92883   0.85114   0.68420   0.00000  Uiso   1.00
C237   C     0.87495   0.84223   0.60019   0.00000  Uiso   1.00
C238   C     0.86013   0.79378   0.57255   0.00000  Uiso   1.00
C239   C     0.81566   0.72173   0.49688   0.00000  Uiso   1.00
C240   C     0.95406   0.90104   0.88333   0.00000  Uiso   1.00
C241   C     0.92137   0.93408   0.96677   0.00000  Uiso   1.00
C242   C     0.92778   0.92763   0.10678   0.00000  Uiso   1.00
C243   C     0.92247   0.93306   0.34029   0.00000  Uiso   1.00
C244   C     0.02325   0.83108   0.82791   0.00000  Uiso   1.00
C245   C     0.06376   0.86541   0.73851   0.00000  Uiso   1.00
C246   C     0.13074   0.86103   0.71083   0.00000  Uiso   1.00
C247   C     0.15867   0.89617   0.62664   0.00000  Uiso   1.00
C248   C     0.96657   0.81301   0.73867   0.00000  Uiso   1.00
C249   C     0.95182   0.76456   0.71116   0.00000  Uiso   1.00
C250   C     0.89794   0.75559   0.62712   0.00000  Uiso   1.00
C251   C     0.99180   0.86291   0.93781   0.00000  Uiso   1.00
C252   C     0.99825   0.85641   0.07773   0.00000  Uiso   1.00
C253   C     0.96558   0.88944   0.16136   0.00000  Uiso   1.00
H254   H     0.92438   0.93096   0.68520   0.00000  Uiso   1.00
H255   H     0.02464   0.96819   0.55771   0.00000  Uiso   1.00
H256   H     0.84575   0.87174   0.55806   0.00000  Uiso   1.00
H257   H     0.89217   0.96358   0.92457   0.00000  Uiso   1.00
H258   H     0.15242   0.99265   0.44036   0.00000  Uiso   1.00
H259   H     0.77522   0.78928   0.44112   0.00000  Uiso   1.00
H260   H     0.87310   0.98293   0.21399   0.00000  Uiso   1.00
H261   H     0.05263   0.80139   0.87032   0.00000  Uiso   1.00
H262   H     0.15993   0.83152   0.75300   0.00000  Uiso   1.00
H263   H     0.98104   0.73507   0.75334   0.00000  Uiso   1.00
H264   H     0.02746   0.82690   0.11985   0.00000  Uiso   1.00
H265   H     0.26223   0.88172   0.59885   0.00000  Uiso   1.00
H266   H     0.88502   0.67835   0.59962   0.00000  Uiso   1.00
H267   H     0.98291   0.87200   0.37248   0.00000  Uiso   1.00
O268   O     0.27559   0.95933   0.43904   0.00000  Uiso   1.00
O269   O     0.78071   0.69252   0.44007   0.00000  Uiso   1.00
O270   O     0.90913   0.94658   0.45404   0.00000  Uiso   1.00
N271   N     0.16355   0.96242   0.49378   0.00000  Uiso   1.00
N272   N     0.81089   0.77228   0.49448   0.00000  Uiso   1.00
N273   N     0.90238   0.95331   0.21704   0.00000  Uiso   1.00
N274   N     0.22263   0.90272   0.57907   0.00000  Uiso   1.00
N275   N     0.86997   0.71259   0.57976   0.00000  Uiso   1.00
N276   N     0.96147   0.89362   0.30233   0.00000  Uiso   1.00
C277   C     0.45377   0.59873   0.27238   0.00000  Uiso   1.00
C278   C     0.52602   0.59646   0.31597   0.00000  Uiso   1.00
C279   C     0.55386   0.56131   0.40014   0.00000  Uiso   1.00
C280   C     0.62086   0.56564   0.42794   0.00000  Uiso   1.00
C281   C     0.72731   0.55633   0.50396   0.00000  Uiso   1.00
C282   C     0.42883   0.64886   0.31580   0.00000  Uiso   1.00
C283   C     0.37495   0.65777   0.39981   0.00000  Uiso   1.00
C284   C     0.36013   0.70622   0.42745   0.00000  Uiso   1.00
C285   C     0.31566   0.77827   0.50312   0.00000  Uiso   1.00
C286   C     0.45406   0.59896   0.11667   0.00000  Uiso   1.00
C287   C     0.42137   0.56592   0.03323   0.00000  Uiso   1.00
C288   C     0.42778   0.57237   0.89322   0.00000  Uiso   1.00
C289   C     0.42247   0.56694   0.65971   0.00000  Uiso   1.00
C290   C     0.52325   0.66892   0.17209   0.00000  Uiso   1.00
C291   C     0.56376   0.63459   0.26149   0.00000  Uiso   1.00
C292   C     0.63074   0.63897   0.28917   0.00000  Uiso   1.00
C293   C     0.65867   0.60383   0.37336   0.00000  Uiso   1.00
C294   C     0.46657   0.68699   0.26133   0.00000  Uiso   1.00
C295   C     0.45182   0.73544   0.28884   0.00000  Uiso   1.00
C296   C     0.39794   0.74441   0.37288   0.00000  Uiso   1.00
C297   C     0.49180   0.63709   0.06219   0.00000  Uiso   1.00
C298   C     0.49825   0.64359   0.92227   0.00000  Uiso   1.00
C299   C     0.46558   0.61056   0.83864   0.00000  Uiso   1.00
H300   H     0.42438   0.56904   0.31480   0.00000  Uiso   1.00
H301   H     0.52464   0.53181   0.44229   0.00000  Uiso   1.00
H302   H     0.34575   0.62826   0.44194   0.00000  Uiso   1.00
H303   H     0.39217   0.53642   0.07543   0.00000  Uiso   1.00
H304   H     0.65242   0.50735   0.55964   0.00000  Uiso   1.00
H305   H     0.27522   0.71072   0.55888   0.00000  Uiso   1.00
H306   H     0.37310   0.51707   0.78601   0.00000  Uiso   1.00
H307   H     0.55263   0.69861   0.12968   0.00000  Uiso   1.00
H308   H     0.65993   0.66848   0.24700   0.00000  Uiso   1.00
H309   H     0.48104   0.76493   0.24666   0.00000  Uiso   1.00
H310   H     0.52746   0.67310   0.88015   0.00000  Uiso   1.00
H311   H     0.76223   0.61828   0.40115   0.00000  Uiso   1.00
H312   H     0.38502   0.82165   0.40038   0.00000  Uiso   1.00
H313   H     0.48291   0.62800   0.62752   0.00000  Uiso   1.00
O314   O     0.77559   0.54067   0.56096   0.00000  Uiso   1.00
O315   O     0.28071   0.80748   0.55993   0.00000  Uiso   1.00
O316   O     0.40913   0.55342   0.54596   0.00000  Uiso   1.00
N317   N     0.66355   0.53758   0.50622   0.00000  Uiso   1.00
N318   N     0.31089   0.72772   0.50552   0.00000  Uiso   1.00
N319   N     0.40238   0.54669   0.78296   0.00000  Uiso   1.00
N320   N     0.72263   0.59728   0.42093   0.00000  Uiso   1.00
N321   N     0.36997   0.78741   0.42024   0.00000  Uiso   1.00
N322   N     0.46147   0.60638   0.69767   0.00000  Uiso   1.00
C323   C     0.04623   0.40127   0.77238   0.00000  Uiso   1.00
C324   C     0.97398   0.40354   0.81597   0.00000  Uiso   1.00
C325   C     0.94614   0.43869   0.90014   0.00000  Uiso   1.00
C326   C     0.87914   0.43436   0.92794   0.00000  Uiso   1.00
C327   C     0.77269   0.44367   0.00396   0.00000  Uiso   1.00
C328   C     0.07117   0.35114   0.81580   0.00000  Uiso   1.00
C329   C     0.12505   0.34223   0.89981   0.00000  Uiso   1.00
C330   C     0.13987   0.29378   0.92745   0.00000  Uiso   1.00
C331   C     0.18434   0.22173   0.00312   0.00000  Uiso   1.00
C332   C     0.04594   0.40104   0.61667   0.00000  Uiso   1.00
C333   C     0.07863   0.43408   0.53323   0.00000  Uiso   1.00
C334   C     0.07222   0.42763   0.39322   0.00000  Uiso   1.00
C335   C     0.07753   0.43306   0.15971   0.00000  Uiso   1.00
C336   C     0.97675   0.33108   0.67209   0.00000  Uiso   1.00
C337   C     0.93624   0.36541   0.76149   0.00000  Uiso   1.00
C338   C     0.86926   0.36103   0.78917   0.00000  Uiso   1.00
C339   C     0.84133   0.39617   0.87336   0.00000  Uiso   1.00
C340   C     0.03343   0.31301   0.76133   0.00000  Uiso   1.00
C341   C     0.04818   0.26456   0.78884   0.00000  Uiso   1.00
C342   C     0.10206   0.25559   0.87288   0.00000  Uiso   1.00
C343   C     0.00820   0.36291   0.56219   0.00000  Uiso   1.00
C344   C     0.00175   0.35641   0.42227   0.00000  Uiso   1.00
C345   C     0.03442   0.38944   0.33864   0.00000  Uiso   1.00
H346   H     0.07562   0.43096   0.81480   0.00000  Uiso   1.00
H347   H     0.97536   0.46819   0.94229   0.00000  Uiso   1.00
H348   H     0.15425   0.37174   0.94194   0.00000  Uiso   1.00
H349   H     0.10783   0.46358   0.57543   0.00000  Uiso   1.00
H350   H     0.84758   0.49265   0.05964   0.00000  Uiso   1.00
H351   H     0.22478   0.28928   0.05888   0.00000  Uiso   1.00
H352   H     0.12690   0.48293   0.28601   0.00000  Uiso   1.00
H353   H     0.94737   0.30139   0.62968   0.00000  Uiso   1.00
H354   H     0.84007   0.33152   0.74700   0.00000  Uiso   1.00
H355   H     0.01896   0.23507   0.74666   0.00000  Uiso   1.00
H356   H     0.97254   0.32690   0.38015   0.00000  Uiso   1.00
H357   H     0.73777   0.38172   0.90115   0.00000  Uiso   1.00
H358   H     0.11498   0.17835   0.90038   0.00000  Uiso   1.00
H359   H     0.01709   0.37200   0.12752   0.00000  Uiso   1.00
O360   O     0.72441   0.45933   0.06096   0.00000  Uiso   1.00
O361   O     0.21929   0.19252   0.05993   0.00000  Uiso   1.00
O362   O     0.09087   0.44658   0.04596   0.00000  Uiso   1.00
N363   N     0.83645   0.46242   0.00622   0.00000  Uiso   1.00
N364   N     0.18911   0.27228   0.00552   0.00000  Uiso   1.00
N365   N     0.09762   0.45331   0.28296   0.00000  Uiso   1.00
N366   N     0.77737   0.40272   0.92093   0.00000  Uiso   1.00
N367   N     0.13003   0.21259   0.92024   0.00000  Uiso   1.00
N368   N     0.03853   0.39362   0.19767   0.00000  Uiso   1.00
