data_job_02466
_audit_creation_date              2018-12-19
_audit_creation_method            'Materials Studio'
_symmetry_space_group_name_H-M    'P1'
_symmetry_Int_Tables_number       1
_symmetry_cell_setting            triclinic
loop_
_symmetry_equiv_pos_as_xyz
  x,y,z
_cell_length_a                    12.3941
_cell_length_b                    42.4871
_cell_length_c                    22.9077
_cell_angle_alpha                 90.0000
_cell_angle_beta                  137.2581
_cell_angle_gamma                 90.0000
loop_
_atom_site_label
_atom_site_type_symbol
_atom_site_fract_x
_atom_site_fract_y
_atom_site_fract_z
_atom_site_U_iso_or_equiv
_atom_site_adp_type
_atom_site_occupancy
C1     C     0.75700   0.90901   0.02237   0.00000  Uiso   1.00
C2     C     0.85853   0.92655   0.01819   0.00000  Uiso   1.00
C3     C     0.01603   0.93539   0.08828   0.00000  Uiso   1.00
C4     C     0.08798   0.95127   0.07096   0.00000  Uiso   1.00
C5     C     0.25819   0.97750   0.07731   0.00000  Uiso   1.00
C6     C     0.61097   0.92952   0.97474   0.00000  Uiso   1.00
C7     C     0.56031   0.94086   0.00830   0.00000  Uiso   1.00
C8     C     0.42385   0.95924   0.95440   0.00000  Uiso   1.00
C9     C     0.20965   0.99006   0.89327   0.00000  Uiso   1.00
C10    C     0.69712   0.87951   0.96769   0.00000  Uiso   1.00
C11    C     0.71886   0.84879   0.99531   0.00000  Uiso   1.00
C12    C     0.65489   0.82506   0.93546   0.00000  Uiso   1.00
C13    C     0.57446   0.77823   0.86338   0.00000  Uiso   1.00
C14    C     0.60470   0.92150   0.86696   0.00000  Uiso   1.00
C15    C     0.77580   0.93333   0.93378   0.00000  Uiso   1.00
C16    C     0.84753   0.94921   0.91634   0.00000  Uiso   1.00
C17    C     0.00511   0.95807   0.98640   0.00000  Uiso   1.00
C18    C     0.52825   0.93631   0.89033   0.00000  Uiso   1.00
C19    C     0.39181   0.95467   0.83636   0.00000  Uiso   1.00
C20    C     0.34097   0.96603   0.86984   0.00000  Uiso   1.00
C21    C     0.61440   0.88629   0.88327   0.00000  Uiso   1.00
C22    C     0.55037   0.86261   0.82337   0.00000  Uiso   1.00
C23    C     0.57202   0.83186   0.85090   0.00000  Uiso   1.00
H24    H     0.82139   0.90373   0.08808   0.00000  Uiso   1.00
H25    H     0.08000   0.93014   0.15360   0.00000  Uiso   1.00
H26    H     0.62435   0.93560   0.07362   0.00000  Uiso   1.00
H27    H     0.78288   0.84355   0.06063   0.00000  Uiso   1.00
H28    H     0.33022   0.96242   0.18900   0.00000  Uiso   1.00
H29    H     0.36942   0.97393   0.02037   0.00000  Uiso   1.00
H30    H     0.70371   0.77982   0.99297   0.00000  Uiso   1.00
H31    H     0.54029   0.92678   0.80124   0.00000  Uiso   1.00
H32    H     0.78348   0.95445   0.85102   0.00000  Uiso   1.00
H33    H     0.32783   0.95992   0.77104   0.00000  Uiso   1.00
H34    H     0.48636   0.86786   0.75806   0.00000  Uiso   1.00
H35    H     0.08955   0.98216   0.94342   0.00000  Uiso   1.00
H36    H     0.12874   0.99367   0.77478   0.00000  Uiso   1.00
H37    H     0.46304   0.79956   0.74739   0.00000  Uiso   1.00
O38    O     0.37492   0.99009   0.10413   0.00000  Uiso   1.00
O39    O     0.11437   0.00518   0.88288   0.00000  Uiso   1.00
O40    O     0.55297   0.75052   0.84695   0.00000  Uiso   1.00
N41    N     0.24022   0.96326   0.12437   0.00000  Uiso   1.00
N42    N     0.34193   0.97403   0.96671   0.00000  Uiso   1.00
N43    N     0.65444   0.79255   0.94110   0.00000  Uiso   1.00
N44    N     0.11071   0.97388   0.99223   0.00000  Uiso   1.00
N45    N     0.21243   0.98465   0.83457   0.00000  Uiso   1.00
N46    N     0.52494   0.80317   0.80895   0.00000  Uiso   1.00
C47    C     0.36738   0.40646   0.09459   0.00000  Uiso   1.00
C48    C     0.46465   0.42590   0.09016   0.00000  Uiso   1.00
C49    C     0.61868   0.43659   0.16019   0.00000  Uiso   1.00
C50    C     0.68701   0.45402   0.14264   0.00000  Uiso   1.00
C51    C     0.85061   0.48324   0.14863   0.00000  Uiso   1.00
C52    C     0.21466   0.42493   0.04450   0.00000  Uiso   1.00
C53    C     0.15850   0.43480   0.07614   0.00000  Uiso   1.00
C54    C     0.01638   0.45141   0.02014   0.00000  Uiso   1.00
C55    C     0.79181   0.47910   0.95523   0.00000  Uiso   1.00
C56    C     0.31829   0.37674   0.04241   0.00000  Uiso   1.00
C57    C     0.34922   0.34608   0.07227   0.00000  Uiso   1.00
C58    C     0.29430   0.32212   0.01451   0.00000  Uiso   1.00
C59    C     0.23063   0.27498   0.94634   0.00000  Uiso   1.00
C60    C     0.21482   0.41841   0.93890   0.00000  Uiso   1.00
C61    C     0.38177   0.43239   0.00560   0.00000  Uiso   1.00
C62    C     0.44989   0.44982   0.98794   0.00000  Uiso   1.00
C63    C     0.60400   0.46053   0.05792   0.00000  Uiso   1.00
C64    C     0.13179   0.43142   0.95994   0.00000  Uiso   1.00
C65    C     0.98971   0.44803   0.90389   0.00000  Uiso   1.00
C66    C     0.93336   0.45792   0.93543   0.00000  Uiso   1.00
C67    C     0.23542   0.38323   0.95785   0.00000  Uiso   1.00
C68    C     0.18043   0.35931   0.90002   0.00000  Uiso   1.00
C69    C     0.21128   0.32862   0.92979   0.00000  Uiso   1.00
H70    H     0.43189   0.40140   0.16042   0.00000  Uiso   1.00
H71    H     0.68277   0.43156   0.22562   0.00000  Uiso   1.00
H72    H     0.22265   0.42977   0.14158   0.00000  Uiso   1.00
H73    H     0.41335   0.34106   0.13771   0.00000  Uiso   1.00
H74    H     0.92434   0.46787   0.26061   0.00000  Uiso   1.00
H75    H     0.95414   0.46408   0.08340   0.00000  Uiso   1.00
H76    H     0.35625   0.27703   0.07525   0.00000  Uiso   1.00
H77    H     0.15029   0.42347   0.87306   0.00000  Uiso   1.00
H78    H     0.38573   0.45484   0.92249   0.00000  Uiso   1.00
H79    H     0.92561   0.45304   0.83845   0.00000  Uiso   1.00
H80    H     0.11631   0.36434   0.83459   0.00000  Uiso   1.00
H81    H     0.68325   0.48676   0.01458   0.00000  Uiso   1.00
H82    H     0.71304   0.48297   0.83736   0.00000  Uiso   1.00
H83    H     0.11516   0.29593   0.82921   0.00000  Uiso   1.00
O84    O     0.96373   0.49756   0.17530   0.00000  Uiso   1.00
O85    O     0.69085   0.49258   0.94279   0.00000  Uiso   1.00
O86    O     0.21842   0.24719   0.93210   0.00000  Uiso   1.00
N87    N     0.83530   0.46801   0.19592   0.00000  Uiso   1.00
N88    N     0.92823   0.46447   0.03024   0.00000  Uiso   1.00
N89    N     0.30414   0.28959   0.02262   0.00000  Uiso   1.00
N90    N     0.70558   0.47817   0.06354   0.00000  Uiso   1.00
N91    N     0.79851   0.47463   0.89785   0.00000  Uiso   1.00
N92    N     0.17441   0.29976   0.89023   0.00000  Uiso   1.00
C93    C     0.24300   0.40901   0.47763   0.00000  Uiso   1.00
C94    C     0.14147   0.42655   0.48181   0.00000  Uiso   1.00
C95    C     0.98397   0.43539   0.41172   0.00000  Uiso   1.00
C96    C     0.91202   0.45127   0.42904   0.00000  Uiso   1.00
C97    C     0.74181   0.47750   0.42269   0.00000  Uiso   1.00
C98    C     0.38903   0.42952   0.52526   0.00000  Uiso   1.00
C99    C     0.43969   0.44086   0.49170   0.00000  Uiso   1.00
C100   C     0.57615   0.45924   0.54560   0.00000  Uiso   1.00
C101   C     0.79035   0.49006   0.60673   0.00000  Uiso   1.00
C102   C     0.30288   0.37951   0.53231   0.00000  Uiso   1.00
C103   C     0.28114   0.34879   0.50469   0.00000  Uiso   1.00
C104   C     0.34511   0.32506   0.56454   0.00000  Uiso   1.00
C105   C     0.42554   0.27823   0.63662   0.00000  Uiso   1.00
C106   C     0.39530   0.42150   0.63304   0.00000  Uiso   1.00
C107   C     0.22420   0.43333   0.56622   0.00000  Uiso   1.00
C108   C     0.15247   0.44921   0.58366   0.00000  Uiso   1.00
C109   C     0.99489   0.45807   0.51360   0.00000  Uiso   1.00
C110   C     0.47175   0.43631   0.60967   0.00000  Uiso   1.00
C111   C     0.60819   0.45467   0.66364   0.00000  Uiso   1.00
C112   C     0.65903   0.46603   0.63016   0.00000  Uiso   1.00
C113   C     0.38560   0.38629   0.61673   0.00000  Uiso   1.00
C114   C     0.44963   0.36261   0.67663   0.00000  Uiso   1.00
C115   C     0.42798   0.33186   0.64910   0.00000  Uiso   1.00
H116   H     0.17861   0.40373   0.41192   0.00000  Uiso   1.00
H117   H     0.92000   0.43014   0.34640   0.00000  Uiso   1.00
H118   H     0.37565   0.43560   0.42638   0.00000  Uiso   1.00
H119   H     0.21712   0.34355   0.43937   0.00000  Uiso   1.00
H120   H     0.66978   0.46242   0.31100   0.00000  Uiso   1.00
H121   H     0.63058   0.47393   0.47963   0.00000  Uiso   1.00
H122   H     0.29629   0.27982   0.50703   0.00000  Uiso   1.00
H123   H     0.45971   0.42678   0.69876   0.00000  Uiso   1.00
H124   H     0.21652   0.45445   0.64898   0.00000  Uiso   1.00
H125   H     0.67217   0.45992   0.72896   0.00000  Uiso   1.00
H126   H     0.51364   0.36786   0.74194   0.00000  Uiso   1.00
H127   H     0.91045   0.48216   0.55658   0.00000  Uiso   1.00
H128   H     0.87126   0.49367   0.72522   0.00000  Uiso   1.00
H129   H     0.53696   0.29956   0.75261   0.00000  Uiso   1.00
O130   O     0.62508   0.49009   0.39587   0.00000  Uiso   1.00
O131   O     0.88563   0.50518   0.61712   0.00000  Uiso   1.00
O132   O     0.44703   0.25052   0.65305   0.00000  Uiso   1.00
N133   N     0.75978   0.46326   0.37563   0.00000  Uiso   1.00
N134   N     0.65807   0.47403   0.53329   0.00000  Uiso   1.00
N135   N     0.34556   0.29255   0.55890   0.00000  Uiso   1.00
N136   N     0.88929   0.47388   0.50777   0.00000  Uiso   1.00
N137   N     0.78757   0.48465   0.66543   0.00000  Uiso   1.00
N138   N     0.47506   0.30317   0.69105   0.00000  Uiso   1.00
C139   C     0.63262   0.90646   0.40541   0.00000  Uiso   1.00
C140   C     0.53535   0.92590   0.40984   0.00000  Uiso   1.00
C141   C     0.38132   0.93659   0.33981   0.00000  Uiso   1.00
C142   C     0.31299   0.95402   0.35736   0.00000  Uiso   1.00
C143   C     0.14939   0.98324   0.35137   0.00000  Uiso   1.00
C144   C     0.78534   0.92493   0.45550   0.00000  Uiso   1.00
C145   C     0.84150   0.93480   0.42386   0.00000  Uiso   1.00
C146   C     0.98362   0.95141   0.47986   0.00000  Uiso   1.00
C147   C     0.20819   0.97910   0.54477   0.00000  Uiso   1.00
C148   C     0.68171   0.87674   0.45759   0.00000  Uiso   1.00
C149   C     0.65078   0.84608   0.42773   0.00000  Uiso   1.00
C150   C     0.70570   0.82212   0.48549   0.00000  Uiso   1.00
C151   C     0.76937   0.77498   0.55366   0.00000  Uiso   1.00
C152   C     0.78518   0.91841   0.56110   0.00000  Uiso   1.00
C153   C     0.61823   0.93239   0.49440   0.00000  Uiso   1.00
C154   C     0.55011   0.94982   0.51206   0.00000  Uiso   1.00
C155   C     0.39600   0.96053   0.44208   0.00000  Uiso   1.00
C156   C     0.86821   0.93142   0.54006   0.00000  Uiso   1.00
C157   C     0.01029   0.94803   0.59611   0.00000  Uiso   1.00
C158   C     0.06664   0.95792   0.56457   0.00000  Uiso   1.00
C159   C     0.76458   0.88323   0.54215   0.00000  Uiso   1.00
C160   C     0.81957   0.85931   0.59998   0.00000  Uiso   1.00
C161   C     0.78872   0.82862   0.57021   0.00000  Uiso   1.00
H162   H     0.56811   0.90140   0.33958   0.00000  Uiso   1.00
H163   H     0.31723   0.93156   0.27438   0.00000  Uiso   1.00
H164   H     0.77735   0.92977   0.35842   0.00000  Uiso   1.00
H165   H     0.58665   0.84106   0.36229   0.00000  Uiso   1.00
H166   H     0.07566   0.96787   0.23939   0.00000  Uiso   1.00
H167   H     0.04586   0.96408   0.41660   0.00000  Uiso   1.00
H168   H     0.64375   0.77703   0.42475   0.00000  Uiso   1.00
H169   H     0.84971   0.92347   0.62694   0.00000  Uiso   1.00
H170   H     0.61427   0.95484   0.57751   0.00000  Uiso   1.00
H171   H     0.07439   0.95304   0.66155   0.00000  Uiso   1.00
H172   H     0.88369   0.86434   0.66541   0.00000  Uiso   1.00
H173   H     0.31675   0.98676   0.48542   0.00000  Uiso   1.00
H174   H     0.28696   0.98297   0.66264   0.00000  Uiso   1.00
H175   H     0.88484   0.79593   0.67079   0.00000  Uiso   1.00
O176   O     0.03627   0.99756   0.32470   0.00000  Uiso   1.00
O177   O     0.30915   0.99258   0.55721   0.00000  Uiso   1.00
O178   O     0.78158   0.74719   0.56790   0.00000  Uiso   1.00
N179   N     0.16470   0.96801   0.30408   0.00000  Uiso   1.00
N180   N     0.07177   0.96447   0.46976   0.00000  Uiso   1.00
N181   N     0.69586   0.78959   0.47738   0.00000  Uiso   1.00
N182   N     0.29442   0.97817   0.43646   0.00000  Uiso   1.00
N183   N     0.20149   0.97463   0.60215   0.00000  Uiso   1.00
N184   N     0.82559   0.79976   0.60977   0.00000  Uiso   1.00
C185   C     0.24300   0.09099   0.97763   0.00000  Uiso   1.00
C186   C     0.14147   0.07345   0.98181   0.00000  Uiso   1.00
C187   C     0.98397   0.06461   0.91172   0.00000  Uiso   1.00
C188   C     0.91202   0.04873   0.92904   0.00000  Uiso   1.00
C189   C     0.74181   0.02250   0.92269   0.00000  Uiso   1.00
C190   C     0.38903   0.07048   0.02526   0.00000  Uiso   1.00
C191   C     0.43969   0.05914   0.99170   0.00000  Uiso   1.00
C192   C     0.57615   0.04076   0.04560   0.00000  Uiso   1.00
C193   C     0.79035   0.00994   0.10673   0.00000  Uiso   1.00
C194   C     0.30288   0.12049   0.03231   0.00000  Uiso   1.00
C195   C     0.28114   0.15121   0.00469   0.00000  Uiso   1.00
C196   C     0.34511   0.17494   0.06454   0.00000  Uiso   1.00
C197   C     0.42554   0.22177   0.13662   0.00000  Uiso   1.00
C198   C     0.39530   0.07850   0.13304   0.00000  Uiso   1.00
C199   C     0.22420   0.06667   0.06622   0.00000  Uiso   1.00
C200   C     0.15247   0.05079   0.08366   0.00000  Uiso   1.00
C201   C     0.99489   0.04193   0.01360   0.00000  Uiso   1.00
C202   C     0.47175   0.06369   0.10967   0.00000  Uiso   1.00
C203   C     0.60819   0.04533   0.16364   0.00000  Uiso   1.00
C204   C     0.65903   0.03397   0.13016   0.00000  Uiso   1.00
C205   C     0.38560   0.11371   0.11673   0.00000  Uiso   1.00
C206   C     0.44963   0.13739   0.17663   0.00000  Uiso   1.00
C207   C     0.42798   0.16814   0.14910   0.00000  Uiso   1.00
H208   H     0.17861   0.09627   0.91192   0.00000  Uiso   1.00
H209   H     0.92000   0.06986   0.84640   0.00000  Uiso   1.00
H210   H     0.37565   0.06440   0.92638   0.00000  Uiso   1.00
H211   H     0.21712   0.15645   0.93937   0.00000  Uiso   1.00
H212   H     0.66978   0.03758   0.81100   0.00000  Uiso   1.00
H213   H     0.63058   0.02607   0.97963   0.00000  Uiso   1.00
H214   H     0.29629   0.22018   0.00703   0.00000  Uiso   1.00
H215   H     0.45971   0.07322   0.19876   0.00000  Uiso   1.00
H216   H     0.21652   0.04555   0.14898   0.00000  Uiso   1.00
H217   H     0.67217   0.04008   0.22896   0.00000  Uiso   1.00
H218   H     0.51364   0.13214   0.24194   0.00000  Uiso   1.00
H219   H     0.91045   0.01784   0.05658   0.00000  Uiso   1.00
H220   H     0.87126   0.00633   0.22522   0.00000  Uiso   1.00
H221   H     0.53696   0.20044   0.25261   0.00000  Uiso   1.00
O222   O     0.62508   0.00991   0.89587   0.00000  Uiso   1.00
O223   O     0.88563   0.99482   0.11712   0.00000  Uiso   1.00
O224   O     0.44703   0.24948   0.15305   0.00000  Uiso   1.00
N225   N     0.75978   0.03674   0.87563   0.00000  Uiso   1.00
N226   N     0.65807   0.02597   0.03329   0.00000  Uiso   1.00
N227   N     0.34556   0.20745   0.05890   0.00000  Uiso   1.00
N228   N     0.88929   0.02612   0.00777   0.00000  Uiso   1.00
N229   N     0.78757   0.01535   0.16543   0.00000  Uiso   1.00
N230   N     0.47506   0.19683   0.19105   0.00000  Uiso   1.00
C231   C     0.63262   0.59354   0.90541   0.00000  Uiso   1.00
C232   C     0.53535   0.57410   0.90984   0.00000  Uiso   1.00
C233   C     0.38132   0.56341   0.83981   0.00000  Uiso   1.00
C234   C     0.31299   0.54598   0.85736   0.00000  Uiso   1.00
C235   C     0.14939   0.51676   0.85137   0.00000  Uiso   1.00
C236   C     0.78534   0.57507   0.95550   0.00000  Uiso   1.00
C237   C     0.84150   0.56520   0.92386   0.00000  Uiso   1.00
C238   C     0.98362   0.54859   0.97986   0.00000  Uiso   1.00
C239   C     0.20819   0.52090   0.04477   0.00000  Uiso   1.00
C240   C     0.68171   0.62326   0.95759   0.00000  Uiso   1.00
C241   C     0.65078   0.65392   0.92773   0.00000  Uiso   1.00
C242   C     0.70570   0.67788   0.98549   0.00000  Uiso   1.00
C243   C     0.76937   0.72502   0.05366   0.00000  Uiso   1.00
C244   C     0.78518   0.58159   0.06110   0.00000  Uiso   1.00
C245   C     0.61823   0.56761   0.99440   0.00000  Uiso   1.00
C246   C     0.55011   0.55018   0.01206   0.00000  Uiso   1.00
C247   C     0.39600   0.53947   0.94208   0.00000  Uiso   1.00
C248   C     0.86821   0.56858   0.04006   0.00000  Uiso   1.00
C249   C     0.01029   0.55197   0.09611   0.00000  Uiso   1.00
C250   C     0.06664   0.54208   0.06457   0.00000  Uiso   1.00
C251   C     0.76458   0.61677   0.04215   0.00000  Uiso   1.00
C252   C     0.81957   0.64069   0.09998   0.00000  Uiso   1.00
C253   C     0.78872   0.67138   0.07021   0.00000  Uiso   1.00
H254   H     0.56811   0.59860   0.83958   0.00000  Uiso   1.00
H255   H     0.31723   0.56844   0.77438   0.00000  Uiso   1.00
H256   H     0.77735   0.57023   0.85842   0.00000  Uiso   1.00
H257   H     0.58665   0.65894   0.86229   0.00000  Uiso   1.00
H258   H     0.07566   0.53213   0.73939   0.00000  Uiso   1.00
H259   H     0.04586   0.53592   0.91660   0.00000  Uiso   1.00
H260   H     0.64375   0.72297   0.92475   0.00000  Uiso   1.00
H261   H     0.84971   0.57653   0.12694   0.00000  Uiso   1.00
H262   H     0.61427   0.54516   0.07751   0.00000  Uiso   1.00
H263   H     0.07439   0.54696   0.16155   0.00000  Uiso   1.00
H264   H     0.88369   0.63566   0.16541   0.00000  Uiso   1.00
H265   H     0.31675   0.51324   0.98542   0.00000  Uiso   1.00
H266   H     0.28696   0.51703   0.16264   0.00000  Uiso   1.00
H267   H     0.88484   0.70407   0.17079   0.00000  Uiso   1.00
O268   O     0.03627   0.50244   0.82470   0.00000  Uiso   1.00
O269   O     0.30915   0.50742   0.05721   0.00000  Uiso   1.00
O270   O     0.78158   0.75281   0.06790   0.00000  Uiso   1.00
N271   N     0.16470   0.53199   0.80408   0.00000  Uiso   1.00
N272   N     0.07177   0.53553   0.96976   0.00000  Uiso   1.00
N273   N     0.69586   0.71041   0.97738   0.00000  Uiso   1.00
N274   N     0.29442   0.52183   0.93646   0.00000  Uiso   1.00
N275   N     0.20149   0.52537   0.10215   0.00000  Uiso   1.00
N276   N     0.82559   0.70024   0.10977   0.00000  Uiso   1.00
C277   C     0.75700   0.59099   0.52237   0.00000  Uiso   1.00
C278   C     0.85853   0.57345   0.51819   0.00000  Uiso   1.00
C279   C     0.01603   0.56461   0.58828   0.00000  Uiso   1.00
C280   C     0.08798   0.54873   0.57096   0.00000  Uiso   1.00
C281   C     0.25819   0.52250   0.57731   0.00000  Uiso   1.00
C282   C     0.61097   0.57048   0.47474   0.00000  Uiso   1.00
C283   C     0.56031   0.55914   0.50830   0.00000  Uiso   1.00
C284   C     0.42385   0.54076   0.45440   0.00000  Uiso   1.00
C285   C     0.20965   0.50994   0.39327   0.00000  Uiso   1.00
C286   C     0.69712   0.62049   0.46769   0.00000  Uiso   1.00
C287   C     0.71886   0.65121   0.49531   0.00000  Uiso   1.00
C288   C     0.65489   0.67494   0.43546   0.00000  Uiso   1.00
C289   C     0.57446   0.72177   0.36338   0.00000  Uiso   1.00
C290   C     0.60470   0.57850   0.36696   0.00000  Uiso   1.00
C291   C     0.77580   0.56667   0.43378   0.00000  Uiso   1.00
C292   C     0.84753   0.55079   0.41634   0.00000  Uiso   1.00
C293   C     0.00511   0.54193   0.48640   0.00000  Uiso   1.00
C294   C     0.52825   0.56369   0.39033   0.00000  Uiso   1.00
C295   C     0.39181   0.54533   0.33636   0.00000  Uiso   1.00
C296   C     0.34097   0.53397   0.36984   0.00000  Uiso   1.00
C297   C     0.61440   0.61371   0.38327   0.00000  Uiso   1.00
C298   C     0.55037   0.63739   0.32337   0.00000  Uiso   1.00
C299   C     0.57202   0.66814   0.35090   0.00000  Uiso   1.00
H300   H     0.82139   0.59627   0.58808   0.00000  Uiso   1.00
H301   H     0.08000   0.56986   0.65360   0.00000  Uiso   1.00
H302   H     0.62435   0.56440   0.57362   0.00000  Uiso   1.00
H303   H     0.78288   0.65645   0.56063   0.00000  Uiso   1.00
H304   H     0.33022   0.53758   0.68900   0.00000  Uiso   1.00
H305   H     0.36942   0.52607   0.52037   0.00000  Uiso   1.00
H306   H     0.70371   0.72018   0.49297   0.00000  Uiso   1.00
H307   H     0.54029   0.57322   0.30124   0.00000  Uiso   1.00
H308   H     0.78348   0.54555   0.35102   0.00000  Uiso   1.00
H309   H     0.32783   0.54008   0.27104   0.00000  Uiso   1.00
H310   H     0.48636   0.63214   0.25806   0.00000  Uiso   1.00
H311   H     0.08955   0.51784   0.44342   0.00000  Uiso   1.00
H312   H     0.12874   0.50633   0.27478   0.00000  Uiso   1.00
H313   H     0.46304   0.70044   0.24739   0.00000  Uiso   1.00
O314   O     0.37492   0.50991   0.60413   0.00000  Uiso   1.00
O315   O     0.11437   0.49482   0.38288   0.00000  Uiso   1.00
O316   O     0.55297   0.74948   0.34695   0.00000  Uiso   1.00
N317   N     0.24022   0.53674   0.62437   0.00000  Uiso   1.00
N318   N     0.34193   0.52597   0.46671   0.00000  Uiso   1.00
N319   N     0.65444   0.70745   0.44110   0.00000  Uiso   1.00
N320   N     0.11071   0.52612   0.49223   0.00000  Uiso   1.00
N321   N     0.21243   0.51535   0.33457   0.00000  Uiso   1.00
N322   N     0.52494   0.69683   0.30895   0.00000  Uiso   1.00
C323   C     0.36738   0.09354   0.59459   0.00000  Uiso   1.00
C324   C     0.46465   0.07410   0.59016   0.00000  Uiso   1.00
C325   C     0.61868   0.06341   0.66019   0.00000  Uiso   1.00
C326   C     0.68701   0.04598   0.64264   0.00000  Uiso   1.00
C327   C     0.85061   0.01676   0.64863   0.00000  Uiso   1.00
C328   C     0.21466   0.07507   0.54450   0.00000  Uiso   1.00
C329   C     0.15850   0.06520   0.57614   0.00000  Uiso   1.00
C330   C     0.01638   0.04859   0.52014   0.00000  Uiso   1.00
C331   C     0.79181   0.02090   0.45523   0.00000  Uiso   1.00
C332   C     0.31829   0.12326   0.54241   0.00000  Uiso   1.00
C333   C     0.34922   0.15392   0.57227   0.00000  Uiso   1.00
C334   C     0.29430   0.17788   0.51451   0.00000  Uiso   1.00
C335   C     0.23063   0.22502   0.44634   0.00000  Uiso   1.00
C336   C     0.21482   0.08159   0.43890   0.00000  Uiso   1.00
C337   C     0.38177   0.06761   0.50560   0.00000  Uiso   1.00
C338   C     0.44989   0.05018   0.48794   0.00000  Uiso   1.00
C339   C     0.60400   0.03947   0.55792   0.00000  Uiso   1.00
C340   C     0.13179   0.06858   0.45994   0.00000  Uiso   1.00
C341   C     0.98971   0.05197   0.40389   0.00000  Uiso   1.00
C342   C     0.93336   0.04208   0.43543   0.00000  Uiso   1.00
C343   C     0.23542   0.11677   0.45785   0.00000  Uiso   1.00
C344   C     0.18043   0.14069   0.40002   0.00000  Uiso   1.00
C345   C     0.21128   0.17138   0.42979   0.00000  Uiso   1.00
H346   H     0.43189   0.09860   0.66042   0.00000  Uiso   1.00
H347   H     0.68277   0.06844   0.72562   0.00000  Uiso   1.00
H348   H     0.22265   0.07023   0.64158   0.00000  Uiso   1.00
H349   H     0.41335   0.15894   0.63771   0.00000  Uiso   1.00
H350   H     0.92434   0.03213   0.76061   0.00000  Uiso   1.00
H351   H     0.95414   0.03592   0.58340   0.00000  Uiso   1.00
H352   H     0.35625   0.22297   0.57525   0.00000  Uiso   1.00
H353   H     0.15029   0.07653   0.37306   0.00000  Uiso   1.00
H354   H     0.38573   0.04516   0.42249   0.00000  Uiso   1.00
H355   H     0.92561   0.04696   0.33845   0.00000  Uiso   1.00
H356   H     0.11631   0.13566   0.33459   0.00000  Uiso   1.00
H357   H     0.68325   0.01324   0.51458   0.00000  Uiso   1.00
H358   H     0.71304   0.01703   0.33736   0.00000  Uiso   1.00
H359   H     0.11516   0.20407   0.32921   0.00000  Uiso   1.00
O360   O     0.96373   0.00244   0.67530   0.00000  Uiso   1.00
O361   O     0.69085   0.00742   0.44279   0.00000  Uiso   1.00
O362   O     0.21842   0.25281   0.43210   0.00000  Uiso   1.00
N363   N     0.83530   0.03199   0.69592   0.00000  Uiso   1.00
N364   N     0.92823   0.03553   0.53024   0.00000  Uiso   1.00
N365   N     0.30414   0.21041   0.52262   0.00000  Uiso   1.00
N366   N     0.70558   0.02183   0.56354   0.00000  Uiso   1.00
N367   N     0.79851   0.02537   0.39785   0.00000  Uiso   1.00
N368   N     0.17441   0.20024   0.39023   0.00000  Uiso   1.00
