data_job_02177
_audit_creation_date              2018-12-19
_audit_creation_method            'Materials Studio'
_symmetry_space_group_name_H-M    'P1'
_symmetry_Int_Tables_number       1
_symmetry_cell_setting            triclinic
loop_
_symmetry_equiv_pos_as_xyz
  x,y,z
_cell_length_a                    21.2103
_cell_length_b                    12.1827
_cell_length_c                    13.4072
_cell_angle_alpha                 90.0000
_cell_angle_beta                  91.0340
_cell_angle_gamma                 90.0000
loop_
_atom_site_label
_atom_site_type_symbol
_atom_site_fract_x
_atom_site_fract_y
_atom_site_fract_z
_atom_site_U_iso_or_equiv
_atom_site_adp_type
_atom_site_occupancy
C1     C     0.71114   0.08528   0.28807   0.00000  Uiso   1.00
C2     C     0.75558   0.05324   0.37389   0.00000  Uiso   1.00
C3     C     0.82095   0.05626   0.37205   0.00000  Uiso   1.00
C4     C     0.85311   0.02365   0.45816   0.00000  Uiso   1.00
C5     C     0.92700   0.97908   0.57849   0.00000  Uiso   1.00
C6     C     0.66942   0.98541   0.26823   0.00000  Uiso   1.00
C7     C     0.66235   0.93143   0.17757   0.00000  Uiso   1.00
C8     C     0.62197   0.84173   0.17474   0.00000  Uiso   1.00
C9     C     0.56206   0.69191   0.13103   0.00000  Uiso   1.00
C10    C     0.66790   0.17379   0.32912   0.00000  Uiso   1.00
C11    C     0.65953   0.27819   0.28963   0.00000  Uiso   1.00
C12    C     0.61786   0.34709   0.33805   0.00000  Uiso   1.00
C13    C     0.55558   0.48976   0.38886   0.00000  Uiso   1.00
C14    C     0.65200   0.02198   0.44426   0.00000  Uiso   1.00
C15    C     0.72345   0.01886   0.45872   0.00000  Uiso   1.00
C16    C     0.75552   0.98624   0.54486   0.00000  Uiso   1.00
C17    C     0.82094   0.98922   0.54315   0.00000  Uiso   1.00
C18    C     0.63730   0.95103   0.35306   0.00000  Uiso   1.00
C19    C     0.59692   0.86140   0.35037   0.00000  Uiso   1.00
C20    C     0.58979   0.80729   0.25973   0.00000  Uiso   1.00
C21    C     0.63577   0.13942   0.41395   0.00000  Uiso   1.00
C22    C     0.59410   0.20816   0.46243   0.00000  Uiso   1.00
C23    C     0.58568   0.31265   0.42303   0.00000  Uiso   1.00
H24    H     0.73614   0.11204   0.22202   0.00000  Uiso   1.00
H25    H     0.84579   0.08286   0.30638   0.00000  Uiso   1.00
H26    H     0.68720   0.95806   0.11193   0.00000  Uiso   1.00
H27    H     0.68439   0.30477   0.22398   0.00000  Uiso   1.00
H28    H     0.95319   0.03532   0.43732   0.00000  Uiso   1.00
H29    H     0.61879   0.77218   0.02729   0.00000  Uiso   1.00
H30    H     0.61285   0.50329   0.26356   0.00000  Uiso   1.00
H31    H     0.62699   0.99522   0.51030   0.00000  Uiso   1.00
H32    H     0.73065   0.95964   0.61049   0.00000  Uiso   1.00
H33    H     0.57207   0.83482   0.41603   0.00000  Uiso   1.00
H34    H     0.56925   0.18153   0.52808   0.00000  Uiso   1.00
H35    H     0.85974   0.93530   0.68414   0.00000  Uiso   1.00
H36    H     0.52533   0.67216   0.27411   0.00000  Uiso   1.00
H37    H     0.51940   0.40327   0.51038   0.00000  Uiso   1.00
O38    O     0.97663   0.96398   0.62142   0.00000  Uiso   1.00
O39    O     0.53789   0.61876   0.08348   0.00000  Uiso   1.00
O40    O     0.53011   0.57796   0.39346   0.00000  Uiso   1.00
N41    N     0.91697   0.01669   0.48167   0.00000  Uiso   1.00
N42    N     0.60433   0.77065   0.09832   0.00000  Uiso   1.00
N43    N     0.59877   0.45417   0.31919   0.00000  Uiso   1.00
N44    N     0.86669   0.96287   0.61448   0.00000  Uiso   1.00
N45    N     0.55405   0.71683   0.23113   0.00000  Uiso   1.00
N46    N     0.54848   0.40035   0.45201   0.00000  Uiso   1.00
C47    C     0.28886   0.58528   0.21193   0.00000  Uiso   1.00
C48    C     0.24442   0.55324   0.12611   0.00000  Uiso   1.00
C49    C     0.17905   0.55626   0.12795   0.00000  Uiso   1.00
C50    C     0.14689   0.52365   0.04184   0.00000  Uiso   1.00
C51    C     0.07300   0.47908   0.92151   0.00000  Uiso   1.00
C52    C     0.33058   0.48541   0.23177   0.00000  Uiso   1.00
C53    C     0.33765   0.43143   0.32243   0.00000  Uiso   1.00
C54    C     0.37803   0.34173   0.32526   0.00000  Uiso   1.00
C55    C     0.43794   0.19191   0.36897   0.00000  Uiso   1.00
C56    C     0.33210   0.67379   0.17088   0.00000  Uiso   1.00
C57    C     0.34047   0.77819   0.21037   0.00000  Uiso   1.00
C58    C     0.38214   0.84709   0.16195   0.00000  Uiso   1.00
C59    C     0.44442   0.98976   0.11114   0.00000  Uiso   1.00
C60    C     0.34800   0.52198   0.05574   0.00000  Uiso   1.00
C61    C     0.27655   0.51886   0.04128   0.00000  Uiso   1.00
C62    C     0.24448   0.48624   0.95514   0.00000  Uiso   1.00
C63    C     0.17906   0.48922   0.95685   0.00000  Uiso   1.00
C64    C     0.36270   0.45103   0.14694   0.00000  Uiso   1.00
C65    C     0.40308   0.36140   0.14963   0.00000  Uiso   1.00
C66    C     0.41021   0.30729   0.24027   0.00000  Uiso   1.00
C67    C     0.36423   0.63942   0.08605   0.00000  Uiso   1.00
C68    C     0.40590   0.70816   0.03757   0.00000  Uiso   1.00
C69    C     0.41432   0.81265   0.07697   0.00000  Uiso   1.00
H70    H     0.26386   0.61204   0.27798   0.00000  Uiso   1.00
H71    H     0.15421   0.58286   0.19362   0.00000  Uiso   1.00
H72    H     0.31280   0.45806   0.38807   0.00000  Uiso   1.00
H73    H     0.31561   0.80477   0.27602   0.00000  Uiso   1.00
H74    H     0.04681   0.53532   0.06268   0.00000  Uiso   1.00
H75    H     0.38121   0.27218   0.47271   0.00000  Uiso   1.00
H76    H     0.38715   0.00329   0.23644   0.00000  Uiso   1.00
H77    H     0.37301   0.49522   0.98970   0.00000  Uiso   1.00
H78    H     0.26935   0.45964   0.88951   0.00000  Uiso   1.00
H79    H     0.42793   0.33482   0.08397   0.00000  Uiso   1.00
H80    H     0.43075   0.68153   0.97192   0.00000  Uiso   1.00
H81    H     0.14026   0.43530   0.81586   0.00000  Uiso   1.00
H82    H     0.47467   0.17216   0.22589   0.00000  Uiso   1.00
H83    H     0.48060   0.90327   0.98962   0.00000  Uiso   1.00
O84    O     0.02337   0.46398   0.87858   0.00000  Uiso   1.00
O85    O     0.46211   0.11876   0.41652   0.00000  Uiso   1.00
O86    O     0.46989   0.07796   0.10654   0.00000  Uiso   1.00
N87    N     0.08303   0.51669   0.01833   0.00000  Uiso   1.00
N88    N     0.39567   0.27065   0.40168   0.00000  Uiso   1.00
N89    N     0.40123   0.95417   0.18081   0.00000  Uiso   1.00
N90    N     0.13331   0.46287   0.88552   0.00000  Uiso   1.00
N91    N     0.44595   0.21683   0.26887   0.00000  Uiso   1.00
N92    N     0.45152   0.90035   0.04799   0.00000  Uiso   1.00
C93    C     0.28886   0.91472   0.71193   0.00000  Uiso   1.00
C94    C     0.24442   0.94676   0.62611   0.00000  Uiso   1.00
C95    C     0.17905   0.94374   0.62795   0.00000  Uiso   1.00
C96    C     0.14689   0.97635   0.54184   0.00000  Uiso   1.00
C97    C     0.07300   0.02092   0.42151   0.00000  Uiso   1.00
C98    C     0.33058   0.01459   0.73177   0.00000  Uiso   1.00
C99    C     0.33765   0.06857   0.82243   0.00000  Uiso   1.00
C100   C     0.37803   0.15827   0.82526   0.00000  Uiso   1.00
C101   C     0.43794   0.30809   0.86897   0.00000  Uiso   1.00
C102   C     0.33210   0.82621   0.67088   0.00000  Uiso   1.00
C103   C     0.34047   0.72181   0.71037   0.00000  Uiso   1.00
C104   C     0.38214   0.65291   0.66195   0.00000  Uiso   1.00
C105   C     0.44442   0.51024   0.61114   0.00000  Uiso   1.00
C106   C     0.34800   0.97802   0.55574   0.00000  Uiso   1.00
C107   C     0.27655   0.98114   0.54128   0.00000  Uiso   1.00
C108   C     0.24448   0.01376   0.45514   0.00000  Uiso   1.00
C109   C     0.17906   0.01078   0.45685   0.00000  Uiso   1.00
C110   C     0.36270   0.04897   0.64694   0.00000  Uiso   1.00
C111   C     0.40308   0.13860   0.64963   0.00000  Uiso   1.00
C112   C     0.41021   0.19271   0.74027   0.00000  Uiso   1.00
C113   C     0.36423   0.86058   0.58605   0.00000  Uiso   1.00
C114   C     0.40590   0.79184   0.53757   0.00000  Uiso   1.00
C115   C     0.41432   0.68735   0.57697   0.00000  Uiso   1.00
H116   H     0.26386   0.88796   0.77798   0.00000  Uiso   1.00
H117   H     0.15421   0.91714   0.69362   0.00000  Uiso   1.00
H118   H     0.31280   0.04194   0.88807   0.00000  Uiso   1.00
H119   H     0.31561   0.69523   0.77602   0.00000  Uiso   1.00
H120   H     0.04681   0.96468   0.56268   0.00000  Uiso   1.00
H121   H     0.38121   0.22782   0.97271   0.00000  Uiso   1.00
H122   H     0.38715   0.49671   0.73644   0.00000  Uiso   1.00
H123   H     0.37301   0.00478   0.48970   0.00000  Uiso   1.00
H124   H     0.26935   0.04036   0.38951   0.00000  Uiso   1.00
H125   H     0.42793   0.16518   0.58397   0.00000  Uiso   1.00
H126   H     0.43075   0.81847   0.47192   0.00000  Uiso   1.00
H127   H     0.14026   0.06470   0.31586   0.00000  Uiso   1.00
H128   H     0.47467   0.32784   0.72589   0.00000  Uiso   1.00
H129   H     0.48060   0.59673   0.48962   0.00000  Uiso   1.00
O130   O     0.02337   0.03602   0.37858   0.00000  Uiso   1.00
O131   O     0.46211   0.38124   0.91652   0.00000  Uiso   1.00
O132   O     0.46989   0.42204   0.60654   0.00000  Uiso   1.00
N133   N     0.08303   0.98331   0.51833   0.00000  Uiso   1.00
N134   N     0.39567   0.22935   0.90168   0.00000  Uiso   1.00
N135   N     0.40123   0.54583   0.68081   0.00000  Uiso   1.00
N136   N     0.13331   0.03713   0.38552   0.00000  Uiso   1.00
N137   N     0.44595   0.28317   0.76887   0.00000  Uiso   1.00
N138   N     0.45152   0.59965   0.54799   0.00000  Uiso   1.00
C139   C     0.71114   0.41472   0.78807   0.00000  Uiso   1.00
C140   C     0.75558   0.44676   0.87389   0.00000  Uiso   1.00
C141   C     0.82095   0.44374   0.87205   0.00000  Uiso   1.00
C142   C     0.85311   0.47635   0.95816   0.00000  Uiso   1.00
C143   C     0.92700   0.52092   0.07849   0.00000  Uiso   1.00
C144   C     0.66942   0.51459   0.76823   0.00000  Uiso   1.00
C145   C     0.66235   0.56857   0.67757   0.00000  Uiso   1.00
C146   C     0.62197   0.65827   0.67474   0.00000  Uiso   1.00
C147   C     0.56206   0.80809   0.63103   0.00000  Uiso   1.00
C148   C     0.66790   0.32621   0.82912   0.00000  Uiso   1.00
C149   C     0.65953   0.22181   0.78963   0.00000  Uiso   1.00
C150   C     0.61786   0.15291   0.83805   0.00000  Uiso   1.00
C151   C     0.55558   0.01024   0.88886   0.00000  Uiso   1.00
C152   C     0.65200   0.47802   0.94426   0.00000  Uiso   1.00
C153   C     0.72345   0.48114   0.95872   0.00000  Uiso   1.00
C154   C     0.75552   0.51376   0.04486   0.00000  Uiso   1.00
C155   C     0.82094   0.51078   0.04315   0.00000  Uiso   1.00
C156   C     0.63730   0.54897   0.85306   0.00000  Uiso   1.00
C157   C     0.59692   0.63860   0.85037   0.00000  Uiso   1.00
C158   C     0.58979   0.69271   0.75973   0.00000  Uiso   1.00
C159   C     0.63577   0.36058   0.91395   0.00000  Uiso   1.00
C160   C     0.59410   0.29184   0.96243   0.00000  Uiso   1.00
C161   C     0.58568   0.18735   0.92303   0.00000  Uiso   1.00
H162   H     0.73614   0.38796   0.72202   0.00000  Uiso   1.00
H163   H     0.84579   0.41714   0.80638   0.00000  Uiso   1.00
H164   H     0.68720   0.54194   0.61193   0.00000  Uiso   1.00
H165   H     0.68439   0.19523   0.72398   0.00000  Uiso   1.00
H166   H     0.95319   0.46468   0.93732   0.00000  Uiso   1.00
H167   H     0.61879   0.72782   0.52729   0.00000  Uiso   1.00
H168   H     0.61285   0.99671   0.76356   0.00000  Uiso   1.00
H169   H     0.62699   0.50478   0.01030   0.00000  Uiso   1.00
H170   H     0.73065   0.54036   0.11049   0.00000  Uiso   1.00
H171   H     0.57207   0.66518   0.91603   0.00000  Uiso   1.00
H172   H     0.56925   0.31847   0.02808   0.00000  Uiso   1.00
H173   H     0.85974   0.56470   0.18414   0.00000  Uiso   1.00
H174   H     0.52533   0.82784   0.77411   0.00000  Uiso   1.00
H175   H     0.51940   0.09673   0.01038   0.00000  Uiso   1.00
O176   O     0.97663   0.53602   0.12142   0.00000  Uiso   1.00
O177   O     0.53789   0.88124   0.58348   0.00000  Uiso   1.00
O178   O     0.53011   0.92204   0.89346   0.00000  Uiso   1.00
N179   N     0.91697   0.48331   0.98167   0.00000  Uiso   1.00
N180   N     0.60433   0.72935   0.59832   0.00000  Uiso   1.00
N181   N     0.59877   0.04583   0.81919   0.00000  Uiso   1.00
N182   N     0.86669   0.53713   0.11448   0.00000  Uiso   1.00
N183   N     0.55405   0.78317   0.73113   0.00000  Uiso   1.00
N184   N     0.54848   0.09965   0.95201   0.00000  Uiso   1.00
