data_job_03091
_audit_creation_date              2018-12-19
_audit_creation_method            'Materials Studio'
_symmetry_space_group_name_H-M    'P1'
_symmetry_Int_Tables_number       1
_symmetry_cell_setting            triclinic
loop_
_symmetry_equiv_pos_as_xyz
  x,y,z
_cell_length_a                    30.2895
_cell_length_b                    30.2895
_cell_length_c                    10.8909
_cell_angle_alpha                 90.0000
_cell_angle_beta                  90.0000
_cell_angle_gamma                 120.0000
loop_
_atom_site_label
_atom_site_type_symbol
_atom_site_fract_x
_atom_site_fract_y
_atom_site_fract_z
_atom_site_U_iso_or_equiv
_atom_site_adp_type
_atom_site_occupancy
C1     C     0.07948   0.44810   0.86098   0.00000  Uiso   1.00
C2     C     0.11984   0.44611   0.78130   0.00000  Uiso   1.00
C3     C     0.15570   0.43359   0.82142   0.00000  Uiso   1.00
C4     C     0.18932   0.43395   0.73426   0.00000  Uiso   1.00
C5     C     0.25234   0.42898   0.62922   0.00000  Uiso   1.00
C6     C     0.08750   0.50168   0.84578   0.00000  Uiso   1.00
C7     C     0.09615   0.53587   0.94013   0.00000  Uiso   1.00
C8     C     0.10253   0.58301   0.90725   0.00000  Uiso   1.00
C9     C     0.11530   0.66430   0.90233   0.00000  Uiso   1.00
C10    C     0.02834   0.41223   0.80089   0.00000  Uiso   1.00
C11    C     0.98725   0.37123   0.85751   0.00000  Uiso   1.00
C12    C     0.94383   0.34306   0.78684   0.00000  Uiso   1.00
C13    C     0.86475   0.28547   0.71223   0.00000  Uiso   1.00
C14    C     0.07544   0.47100   0.63483   0.00000  Uiso   1.00
C15    C     0.11765   0.45855   0.65846   0.00000  Uiso   1.00
C16    C     0.15123   0.45892   0.57120   0.00000  Uiso   1.00
C17    C     0.18712   0.44640   0.61119   0.00000  Uiso   1.00
C18    C     0.08530   0.51411   0.72295   0.00000  Uiso   1.00
C19    C     0.09168   0.56121   0.68991   0.00000  Uiso   1.00
C20    C     0.10034   0.59547   0.78419   0.00000  Uiso   1.00
C21    C     0.02615   0.42467   0.67805   0.00000  Uiso   1.00
C22    C     0.98278   0.39656   0.60728   0.00000  Uiso   1.00
C23    C     0.94163   0.35552   0.66378   0.00000  Uiso   1.00
H24    H     0.08119   0.43842   0.95662   0.00000  Uiso   1.00
H25    H     0.15739   0.42397   0.91650   0.00000  Uiso   1.00
H26    H     0.09784   0.52624   0.03518   0.00000  Uiso   1.00
H27    H     0.98896   0.36162   0.95257   0.00000  Uiso   1.00
H28    H     0.24091   0.41344   0.81785   0.00000  Uiso   1.00
H29    H     0.11533   0.62908   0.06811   0.00000  Uiso   1.00
H30    H     0.88574   0.28194   0.89390   0.00000  Uiso   1.00
H31    H     0.07374   0.48069   0.53919   0.00000  Uiso   1.00
H32    H     0.14952   0.46855   0.47615   0.00000  Uiso   1.00
H33    H     0.08997   0.57082   0.59484   0.00000  Uiso   1.00
H34    H     0.98110   0.40620   0.51223   0.00000  Uiso   1.00
H35    H     0.23452   0.44963   0.46045   0.00000  Uiso   1.00
H36    H     0.10894   0.66526   0.71072   0.00000  Uiso   1.00
H37    H     0.87936   0.31813   0.53650   0.00000  Uiso   1.00
O38    O     0.28772   0.42280   0.60522   0.00000  Uiso   1.00
O39    O     0.12295   0.70570   0.93356   0.00000  Uiso   1.00
O40    O     0.82174   0.25027   0.70501   0.00000  Uiso   1.00
N41    N     0.22900   0.42362   0.74238   0.00000  Uiso   1.00
N42    N     0.11160   0.62522   0.97636   0.00000  Uiso   1.00
N43    N     0.89694   0.30069   0.81350   0.00000  Uiso   1.00
N44    N     0.22556   0.44309   0.55006   0.00000  Uiso   1.00
N45    N     0.10816   0.64469   0.78405   0.00000  Uiso   1.00
N46    N     0.89351   0.32016   0.62119   0.00000  Uiso   1.00
C47    C     0.55190   0.63138   0.86098   0.00000  Uiso   1.00
C48    C     0.55389   0.67374   0.78130   0.00000  Uiso   1.00
C49    C     0.56641   0.72211   0.82142   0.00000  Uiso   1.00
C50    C     0.56605   0.75538   0.73426   0.00000  Uiso   1.00
C51    C     0.57102   0.82337   0.62922   0.00000  Uiso   1.00
C52    C     0.49832   0.58582   0.84578   0.00000  Uiso   1.00
C53    C     0.46413   0.56027   0.94013   0.00000  Uiso   1.00
C54    C     0.41699   0.51952   0.90725   0.00000  Uiso   1.00
C55    C     0.33570   0.45100   0.90233   0.00000  Uiso   1.00
C56    C     0.58777   0.61611   0.80089   0.00000  Uiso   1.00
C57    C     0.62877   0.61602   0.85751   0.00000  Uiso   1.00
C58    C     0.65694   0.60077   0.78684   0.00000  Uiso   1.00
C59    C     0.71453   0.57928   0.71223   0.00000  Uiso   1.00
C60    C     0.52900   0.60444   0.63483   0.00000  Uiso   1.00
C61    C     0.54145   0.65910   0.65846   0.00000  Uiso   1.00
C62    C     0.54108   0.69231   0.57120   0.00000  Uiso   1.00
C63    C     0.55360   0.74072   0.61119   0.00000  Uiso   1.00
C64    C     0.48589   0.57119   0.72295   0.00000  Uiso   1.00
C65    C     0.43879   0.53047   0.68991   0.00000  Uiso   1.00
C66    C     0.40453   0.50487   0.78419   0.00000  Uiso   1.00
C67    C     0.57533   0.60148   0.67805   0.00000  Uiso   1.00
C68    C     0.60344   0.58622   0.60728   0.00000  Uiso   1.00
C69    C     0.64448   0.58611   0.66378   0.00000  Uiso   1.00
H70    H     0.56158   0.64277   0.95662   0.00000  Uiso   1.00
H71    H     0.57603   0.73342   0.91650   0.00000  Uiso   1.00
H72    H     0.47376   0.57160   0.03518   0.00000  Uiso   1.00
H73    H     0.63838   0.62734   0.95257   0.00000  Uiso   1.00
H74    H     0.58656   0.82746   0.81785   0.00000  Uiso   1.00
H75    H     0.37092   0.48625   0.06811   0.00000  Uiso   1.00
H76    H     0.71806   0.60380   0.89390   0.00000  Uiso   1.00
H77    H     0.51931   0.59305   0.53919   0.00000  Uiso   1.00
H78    H     0.53145   0.68097   0.47615   0.00000  Uiso   1.00
H79    H     0.42918   0.51916   0.59484   0.00000  Uiso   1.00
H80    H     0.59380   0.57490   0.51223   0.00000  Uiso   1.00
H81    H     0.55037   0.78490   0.46045   0.00000  Uiso   1.00
H82    H     0.33474   0.44368   0.71072   0.00000  Uiso   1.00
H83    H     0.68187   0.56123   0.53650   0.00000  Uiso   1.00
O84    O     0.57720   0.86491   0.60522   0.00000  Uiso   1.00
O85    O     0.29430   0.41725   0.93356   0.00000  Uiso   1.00
O86    O     0.74973   0.57147   0.70501   0.00000  Uiso   1.00
N87    N     0.57638   0.80538   0.74238   0.00000  Uiso   1.00
N88    N     0.37478   0.48637   0.97636   0.00000  Uiso   1.00
N89    N     0.69931   0.59626   0.81350   0.00000  Uiso   1.00
N90    N     0.55691   0.78248   0.55006   0.00000  Uiso   1.00
N91    N     0.35531   0.46347   0.78405   0.00000  Uiso   1.00
N92    N     0.67984   0.57335   0.62119   0.00000  Uiso   1.00
C93    C     0.36862   0.92052   0.86098   0.00000  Uiso   1.00
C94    C     0.32626   0.88016   0.78130   0.00000  Uiso   1.00
C95    C     0.27789   0.84430   0.82142   0.00000  Uiso   1.00
C96    C     0.24462   0.81068   0.73426   0.00000  Uiso   1.00
C97    C     0.17663   0.74766   0.62922   0.00000  Uiso   1.00
C98    C     0.41418   0.91250   0.84578   0.00000  Uiso   1.00
C99    C     0.43973   0.90385   0.94013   0.00000  Uiso   1.00
C100   C     0.48048   0.89747   0.90725   0.00000  Uiso   1.00
C101   C     0.54900   0.88470   0.90233   0.00000  Uiso   1.00
C102   C     0.38389   0.97166   0.80089   0.00000  Uiso   1.00
C103   C     0.38398   0.01275   0.85751   0.00000  Uiso   1.00
C104   C     0.39923   0.05617   0.78684   0.00000  Uiso   1.00
C105   C     0.42072   0.13525   0.71223   0.00000  Uiso   1.00
C106   C     0.39556   0.92456   0.63483   0.00000  Uiso   1.00
C107   C     0.34090   0.88235   0.65846   0.00000  Uiso   1.00
C108   C     0.30769   0.84877   0.57120   0.00000  Uiso   1.00
C109   C     0.25928   0.81288   0.61119   0.00000  Uiso   1.00
C110   C     0.42881   0.91470   0.72295   0.00000  Uiso   1.00
C111   C     0.46953   0.90832   0.68991   0.00000  Uiso   1.00
C112   C     0.49513   0.89966   0.78419   0.00000  Uiso   1.00
C113   C     0.39852   0.97385   0.67805   0.00000  Uiso   1.00
C114   C     0.41378   0.01722   0.60728   0.00000  Uiso   1.00
C115   C     0.41389   0.05837   0.66378   0.00000  Uiso   1.00
H116   H     0.35723   0.91881   0.95662   0.00000  Uiso   1.00
H117   H     0.26658   0.84261   0.91650   0.00000  Uiso   1.00
H118   H     0.42840   0.90216   0.03518   0.00000  Uiso   1.00
H119   H     0.37266   0.01104   0.95257   0.00000  Uiso   1.00
H120   H     0.17254   0.75909   0.81785   0.00000  Uiso   1.00
H121   H     0.51375   0.88467   0.06811   0.00000  Uiso   1.00
H122   H     0.39620   0.11426   0.89390   0.00000  Uiso   1.00
H123   H     0.40695   0.92626   0.53919   0.00000  Uiso   1.00
H124   H     0.31903   0.85048   0.47615   0.00000  Uiso   1.00
H125   H     0.48084   0.91003   0.59484   0.00000  Uiso   1.00
H126   H     0.42510   0.01890   0.51223   0.00000  Uiso   1.00
H127   H     0.21510   0.76548   0.46045   0.00000  Uiso   1.00
H128   H     0.55632   0.89106   0.71072   0.00000  Uiso   1.00
H129   H     0.43877   0.12064   0.53650   0.00000  Uiso   1.00
O130   O     0.13509   0.71228   0.60522   0.00000  Uiso   1.00
O131   O     0.58275   0.87705   0.93356   0.00000  Uiso   1.00
O132   O     0.42853   0.17826   0.70501   0.00000  Uiso   1.00
N133   N     0.19462   0.77100   0.74238   0.00000  Uiso   1.00
N134   N     0.51363   0.88840   0.97636   0.00000  Uiso   1.00
N135   N     0.40374   0.10306   0.81350   0.00000  Uiso   1.00
N136   N     0.21752   0.77444   0.55006   0.00000  Uiso   1.00
N137   N     0.53653   0.89184   0.78405   0.00000  Uiso   1.00
N138   N     0.42665   0.10649   0.62119   0.00000  Uiso   1.00
C139   C     0.92052   0.55190   0.13902   0.00000  Uiso   1.00
C140   C     0.88016   0.55389   0.21870   0.00000  Uiso   1.00
C141   C     0.84430   0.56641   0.17858   0.00000  Uiso   1.00
C142   C     0.81068   0.56605   0.26574   0.00000  Uiso   1.00
C143   C     0.74766   0.57102   0.37078   0.00000  Uiso   1.00
C144   C     0.91250   0.49832   0.15422   0.00000  Uiso   1.00
C145   C     0.90385   0.46413   0.05987   0.00000  Uiso   1.00
C146   C     0.89747   0.41699   0.09275   0.00000  Uiso   1.00
C147   C     0.88470   0.33570   0.09767   0.00000  Uiso   1.00
C148   C     0.97166   0.58777   0.19911   0.00000  Uiso   1.00
C149   C     0.01275   0.62877   0.14249   0.00000  Uiso   1.00
C150   C     0.05617   0.65694   0.21316   0.00000  Uiso   1.00
C151   C     0.13525   0.71453   0.28777   0.00000  Uiso   1.00
C152   C     0.92456   0.52900   0.36517   0.00000  Uiso   1.00
C153   C     0.88235   0.54145   0.34154   0.00000  Uiso   1.00
C154   C     0.84877   0.54108   0.42880   0.00000  Uiso   1.00
C155   C     0.81288   0.55360   0.38881   0.00000  Uiso   1.00
C156   C     0.91470   0.48589   0.27705   0.00000  Uiso   1.00
C157   C     0.90832   0.43879   0.31009   0.00000  Uiso   1.00
C158   C     0.89966   0.40453   0.21581   0.00000  Uiso   1.00
C159   C     0.97385   0.57533   0.32195   0.00000  Uiso   1.00
C160   C     0.01722   0.60344   0.39272   0.00000  Uiso   1.00
C161   C     0.05837   0.64448   0.33622   0.00000  Uiso   1.00
H162   H     0.91881   0.56158   0.04338   0.00000  Uiso   1.00
H163   H     0.84261   0.57603   0.08350   0.00000  Uiso   1.00
H164   H     0.90216   0.47376   0.96482   0.00000  Uiso   1.00
H165   H     0.01104   0.63838   0.04743   0.00000  Uiso   1.00
H166   H     0.75909   0.58656   0.18215   0.00000  Uiso   1.00
H167   H     0.88467   0.37092   0.93189   0.00000  Uiso   1.00
H168   H     0.11426   0.71806   0.10610   0.00000  Uiso   1.00
H169   H     0.92626   0.51931   0.46081   0.00000  Uiso   1.00
H170   H     0.85048   0.53145   0.52385   0.00000  Uiso   1.00
H171   H     0.91003   0.42918   0.40516   0.00000  Uiso   1.00
H172   H     0.01890   0.59380   0.48777   0.00000  Uiso   1.00
H173   H     0.76548   0.55037   0.53955   0.00000  Uiso   1.00
H174   H     0.89106   0.33474   0.28928   0.00000  Uiso   1.00
H175   H     0.12064   0.68187   0.46350   0.00000  Uiso   1.00
O176   O     0.71228   0.57720   0.39478   0.00000  Uiso   1.00
O177   O     0.87705   0.29430   0.06644   0.00000  Uiso   1.00
O178   O     0.17826   0.74973   0.29499   0.00000  Uiso   1.00
N179   N     0.77100   0.57638   0.25762   0.00000  Uiso   1.00
N180   N     0.88840   0.37478   0.02364   0.00000  Uiso   1.00
N181   N     0.10306   0.69931   0.18650   0.00000  Uiso   1.00
N182   N     0.77444   0.55691   0.44994   0.00000  Uiso   1.00
N183   N     0.89184   0.35531   0.21595   0.00000  Uiso   1.00
N184   N     0.10649   0.67984   0.37881   0.00000  Uiso   1.00
C185   C     0.44810   0.36862   0.13902   0.00000  Uiso   1.00
C186   C     0.44611   0.32626   0.21870   0.00000  Uiso   1.00
C187   C     0.43359   0.27789   0.17858   0.00000  Uiso   1.00
C188   C     0.43395   0.24462   0.26574   0.00000  Uiso   1.00
C189   C     0.42898   0.17663   0.37078   0.00000  Uiso   1.00
C190   C     0.50168   0.41418   0.15422   0.00000  Uiso   1.00
C191   C     0.53587   0.43973   0.05987   0.00000  Uiso   1.00
C192   C     0.58301   0.48048   0.09275   0.00000  Uiso   1.00
C193   C     0.66430   0.54900   0.09767   0.00000  Uiso   1.00
C194   C     0.41223   0.38389   0.19911   0.00000  Uiso   1.00
C195   C     0.37123   0.38398   0.14249   0.00000  Uiso   1.00
C196   C     0.34306   0.39923   0.21316   0.00000  Uiso   1.00
C197   C     0.28547   0.42072   0.28777   0.00000  Uiso   1.00
C198   C     0.47100   0.39556   0.36517   0.00000  Uiso   1.00
C199   C     0.45855   0.34090   0.34154   0.00000  Uiso   1.00
C200   C     0.45892   0.30769   0.42880   0.00000  Uiso   1.00
C201   C     0.44640   0.25928   0.38881   0.00000  Uiso   1.00
C202   C     0.51411   0.42881   0.27705   0.00000  Uiso   1.00
C203   C     0.56121   0.46953   0.31009   0.00000  Uiso   1.00
C204   C     0.59547   0.49513   0.21581   0.00000  Uiso   1.00
C205   C     0.42467   0.39852   0.32195   0.00000  Uiso   1.00
C206   C     0.39656   0.41378   0.39272   0.00000  Uiso   1.00
C207   C     0.35552   0.41389   0.33622   0.00000  Uiso   1.00
H208   H     0.43842   0.35723   0.04338   0.00000  Uiso   1.00
H209   H     0.42397   0.26658   0.08350   0.00000  Uiso   1.00
H210   H     0.52624   0.42840   0.96482   0.00000  Uiso   1.00
H211   H     0.36162   0.37266   0.04743   0.00000  Uiso   1.00
H212   H     0.41344   0.17254   0.18215   0.00000  Uiso   1.00
H213   H     0.62908   0.51375   0.93189   0.00000  Uiso   1.00
H214   H     0.28194   0.39620   0.10610   0.00000  Uiso   1.00
H215   H     0.48069   0.40695   0.46081   0.00000  Uiso   1.00
H216   H     0.46855   0.31903   0.52385   0.00000  Uiso   1.00
H217   H     0.57082   0.48084   0.40516   0.00000  Uiso   1.00
H218   H     0.40620   0.42510   0.48777   0.00000  Uiso   1.00
H219   H     0.44963   0.21510   0.53955   0.00000  Uiso   1.00
H220   H     0.66526   0.55632   0.28928   0.00000  Uiso   1.00
H221   H     0.31813   0.43877   0.46350   0.00000  Uiso   1.00
O222   O     0.42280   0.13509   0.39478   0.00000  Uiso   1.00
O223   O     0.70570   0.58275   0.06644   0.00000  Uiso   1.00
O224   O     0.25027   0.42853   0.29499   0.00000  Uiso   1.00
N225   N     0.42362   0.19462   0.25762   0.00000  Uiso   1.00
N226   N     0.62522   0.51363   0.02364   0.00000  Uiso   1.00
N227   N     0.30069   0.40374   0.18650   0.00000  Uiso   1.00
N228   N     0.44309   0.21752   0.44994   0.00000  Uiso   1.00
N229   N     0.64469   0.53653   0.21595   0.00000  Uiso   1.00
N230   N     0.32016   0.42665   0.37881   0.00000  Uiso   1.00
C231   C     0.63138   0.07948   0.13902   0.00000  Uiso   1.00
C232   C     0.67374   0.11984   0.21870   0.00000  Uiso   1.00
C233   C     0.72211   0.15570   0.17858   0.00000  Uiso   1.00
C234   C     0.75538   0.18932   0.26574   0.00000  Uiso   1.00
C235   C     0.82337   0.25234   0.37078   0.00000  Uiso   1.00
C236   C     0.58582   0.08750   0.15422   0.00000  Uiso   1.00
C237   C     0.56027   0.09615   0.05987   0.00000  Uiso   1.00
C238   C     0.51952   0.10253   0.09275   0.00000  Uiso   1.00
C239   C     0.45100   0.11530   0.09767   0.00000  Uiso   1.00
C240   C     0.61611   0.02834   0.19911   0.00000  Uiso   1.00
C241   C     0.61602   0.98725   0.14249   0.00000  Uiso   1.00
C242   C     0.60077   0.94383   0.21316   0.00000  Uiso   1.00
C243   C     0.57928   0.86475   0.28777   0.00000  Uiso   1.00
C244   C     0.60444   0.07544   0.36517   0.00000  Uiso   1.00
C245   C     0.65910   0.11765   0.34154   0.00000  Uiso   1.00
C246   C     0.69231   0.15123   0.42880   0.00000  Uiso   1.00
C247   C     0.74072   0.18712   0.38881   0.00000  Uiso   1.00
C248   C     0.57119   0.08530   0.27705   0.00000  Uiso   1.00
C249   C     0.53047   0.09168   0.31009   0.00000  Uiso   1.00
C250   C     0.50487   0.10034   0.21581   0.00000  Uiso   1.00
C251   C     0.60148   0.02615   0.32195   0.00000  Uiso   1.00
C252   C     0.58622   0.98278   0.39272   0.00000  Uiso   1.00
C253   C     0.58611   0.94163   0.33622   0.00000  Uiso   1.00
H254   H     0.64277   0.08119   0.04338   0.00000  Uiso   1.00
H255   H     0.73342   0.15739   0.08350   0.00000  Uiso   1.00
H256   H     0.57160   0.09784   0.96482   0.00000  Uiso   1.00
H257   H     0.62734   0.98896   0.04743   0.00000  Uiso   1.00
H258   H     0.82746   0.24091   0.18215   0.00000  Uiso   1.00
H259   H     0.48625   0.11533   0.93189   0.00000  Uiso   1.00
H260   H     0.60380   0.88574   0.10610   0.00000  Uiso   1.00
H261   H     0.59305   0.07374   0.46081   0.00000  Uiso   1.00
H262   H     0.68097   0.14952   0.52385   0.00000  Uiso   1.00
H263   H     0.51916   0.08997   0.40516   0.00000  Uiso   1.00
H264   H     0.57490   0.98110   0.48777   0.00000  Uiso   1.00
H265   H     0.78490   0.23452   0.53955   0.00000  Uiso   1.00
H266   H     0.44368   0.10894   0.28928   0.00000  Uiso   1.00
H267   H     0.56123   0.87936   0.46350   0.00000  Uiso   1.00
O268   O     0.86491   0.28772   0.39478   0.00000  Uiso   1.00
O269   O     0.41725   0.12295   0.06644   0.00000  Uiso   1.00
O270   O     0.57147   0.82174   0.29499   0.00000  Uiso   1.00
N271   N     0.80538   0.22900   0.25762   0.00000  Uiso   1.00
N272   N     0.48637   0.11160   0.02364   0.00000  Uiso   1.00
N273   N     0.59626   0.89694   0.18650   0.00000  Uiso   1.00
N274   N     0.78248   0.22556   0.44994   0.00000  Uiso   1.00
N275   N     0.46347   0.10816   0.21595   0.00000  Uiso   1.00
N276   N     0.57335   0.89351   0.37881   0.00000  Uiso   1.00
