data_job_02946
_audit_creation_date              2018-12-19
_audit_creation_method            'Materials Studio'
_symmetry_space_group_name_H-M    'P1'
_symmetry_Int_Tables_number       1
_symmetry_cell_setting            triclinic
loop_
_symmetry_equiv_pos_as_xyz
  x,y,z
_cell_length_a                    12.5312
_cell_length_b                    14.8316
_cell_length_c                    36.7035
_cell_angle_alpha                 90.0000
_cell_angle_beta                  106.6119
_cell_angle_gamma                 90.0000
loop_
_atom_site_label
_atom_site_type_symbol
_atom_site_fract_x
_atom_site_fract_y
_atom_site_fract_z
_atom_site_U_iso_or_equiv
_atom_site_adp_type
_atom_site_occupancy
C1     C     0.74200   0.35765   0.34535   0.00000  Uiso   1.00
C2     C     0.84841   0.33721   0.37686   0.00000  Uiso   1.00
C3     C     0.94768   0.38468   0.38395   0.00000  Uiso   1.00
C4     C     0.03543   0.35534   0.41411   0.00000  Uiso   1.00
C5     C     0.20238   0.33485   0.45963   0.00000  Uiso   1.00
C6     C     0.71225   0.27110   0.32224   0.00000  Uiso   1.00
C7     C     0.69702   0.26301   0.28341   0.00000  Uiso   1.00
C8     C     0.67014   0.17802   0.26759   0.00000  Uiso   1.00
C9     C     0.62562   0.05492   0.22831   0.00000  Uiso   1.00
C10    C     0.65117   0.37106   0.36501   0.00000  Uiso   1.00
C11    C     0.58456   0.44700   0.36213   0.00000  Uiso   1.00
C12    C     0.50623   0.44617   0.38231   0.00000  Uiso   1.00
C13    C     0.36687   0.47828   0.40944   0.00000  Uiso   1.00
C14    C     0.72130   0.22112   0.38628   0.00000  Uiso   1.00
C15    C     0.83716   0.26305   0.39909   0.00000  Uiso   1.00
C16    C     0.92478   0.23363   0.42924   0.00000  Uiso   1.00
C17    C     0.02417   0.28105   0.43638   0.00000  Uiso   1.00
C18    C     0.70101   0.19695   0.34447   0.00000  Uiso   1.00
C19    C     0.67413   0.11195   0.32870   0.00000  Uiso   1.00
C20    C     0.65888   0.10373   0.28986   0.00000  Uiso   1.00
C21    C     0.63992   0.29691   0.38724   0.00000  Uiso   1.00
C22    C     0.56167   0.29595   0.40742   0.00000  Uiso   1.00
C23    C     0.49497   0.37188   0.40458   0.00000  Uiso   1.00
H24    H     0.75075   0.41538   0.32804   0.00000  Uiso   1.00
H25    H     0.95635   0.44206   0.36674   0.00000  Uiso   1.00
H26    H     0.70572   0.32041   0.26621   0.00000  Uiso   1.00
H27    H     0.59328   0.50438   0.34493   0.00000  Uiso   1.00
H28    H     0.17935   0.43892   0.41944   0.00000  Uiso   1.00
H29    H     0.65085   0.18242   0.20747   0.00000  Uiso   1.00
H30    H     0.41375   0.57035   0.37345   0.00000  Uiso   1.00
H31    H     0.71255   0.16338   0.40359   0.00000  Uiso   1.00
H32    H     0.91606   0.17624   0.44644   0.00000  Uiso   1.00
H33    H     0.66543   0.05458   0.34591   0.00000  Uiso   1.00
H34    H     0.55300   0.23855   0.42463   0.00000  Uiso   1.00
H35    H     0.14665   0.22317   0.48413   0.00000  Uiso   1.00
H36    H     0.61815   0.96666   0.27216   0.00000  Uiso   1.00
H37    H     0.38105   0.35460   0.43814   0.00000  Uiso   1.00
O38    O     0.29757   0.34403   0.47860   0.00000  Uiso   1.00
O39    O     0.60418   0.00751   0.20051   0.00000  Uiso   1.00
O40    O     0.29312   0.51647   0.41827   0.00000  Uiso   1.00
N41    N     0.14372   0.38639   0.42879   0.00000  Uiso   1.00
N42    N     0.64962   0.14657   0.23061   0.00000  Uiso   1.00
N43    N     0.42793   0.50925   0.38578   0.00000  Uiso   1.00
N44    N     0.12612   0.27029   0.46360   0.00000  Uiso   1.00
N45    N     0.63203   0.03047   0.26542   0.00000  Uiso   1.00
N46    N     0.41034   0.39315   0.42059   0.00000  Uiso   1.00
C47    C     0.24200   0.85765   0.34535   0.00000  Uiso   1.00
C48    C     0.34841   0.83721   0.37686   0.00000  Uiso   1.00
C49    C     0.44768   0.88468   0.38395   0.00000  Uiso   1.00
C50    C     0.53543   0.85534   0.41411   0.00000  Uiso   1.00
C51    C     0.70238   0.83485   0.45963   0.00000  Uiso   1.00
C52    C     0.21225   0.77110   0.32224   0.00000  Uiso   1.00
C53    C     0.19702   0.76301   0.28341   0.00000  Uiso   1.00
C54    C     0.17014   0.67802   0.26759   0.00000  Uiso   1.00
C55    C     0.12562   0.55492   0.22831   0.00000  Uiso   1.00
C56    C     0.15117   0.87106   0.36501   0.00000  Uiso   1.00
C57    C     0.08456   0.94700   0.36213   0.00000  Uiso   1.00
C58    C     0.00623   0.94617   0.38231   0.00000  Uiso   1.00
C59    C     0.86687   0.97828   0.40944   0.00000  Uiso   1.00
C60    C     0.22130   0.72112   0.38628   0.00000  Uiso   1.00
C61    C     0.33716   0.76305   0.39909   0.00000  Uiso   1.00
C62    C     0.42478   0.73363   0.42924   0.00000  Uiso   1.00
C63    C     0.52417   0.78105   0.43638   0.00000  Uiso   1.00
C64    C     0.20101   0.69695   0.34447   0.00000  Uiso   1.00
C65    C     0.17413   0.61195   0.32870   0.00000  Uiso   1.00
C66    C     0.15888   0.60373   0.28986   0.00000  Uiso   1.00
C67    C     0.13992   0.79691   0.38724   0.00000  Uiso   1.00
C68    C     0.06167   0.79595   0.40742   0.00000  Uiso   1.00
C69    C     0.99497   0.87188   0.40458   0.00000  Uiso   1.00
H70    H     0.25075   0.91538   0.32804   0.00000  Uiso   1.00
H71    H     0.45635   0.94206   0.36674   0.00000  Uiso   1.00
H72    H     0.20572   0.82041   0.26621   0.00000  Uiso   1.00
H73    H     0.09328   0.00438   0.34493   0.00000  Uiso   1.00
H74    H     0.67935   0.93892   0.41944   0.00000  Uiso   1.00
H75    H     0.15085   0.68242   0.20747   0.00000  Uiso   1.00
H76    H     0.91375   0.07035   0.37345   0.00000  Uiso   1.00
H77    H     0.21255   0.66338   0.40359   0.00000  Uiso   1.00
H78    H     0.41606   0.67624   0.44644   0.00000  Uiso   1.00
H79    H     0.16543   0.55458   0.34591   0.00000  Uiso   1.00
H80    H     0.05300   0.73855   0.42463   0.00000  Uiso   1.00
H81    H     0.64665   0.72317   0.48413   0.00000  Uiso   1.00
H82    H     0.11815   0.46666   0.27216   0.00000  Uiso   1.00
H83    H     0.88105   0.85460   0.43814   0.00000  Uiso   1.00
O84    O     0.79757   0.84403   0.47860   0.00000  Uiso   1.00
O85    O     0.10418   0.50751   0.20051   0.00000  Uiso   1.00
O86    O     0.79312   0.01647   0.41827   0.00000  Uiso   1.00
N87    N     0.64372   0.88639   0.42879   0.00000  Uiso   1.00
N88    N     0.14962   0.64657   0.23061   0.00000  Uiso   1.00
N89    N     0.92793   0.00925   0.38578   0.00000  Uiso   1.00
N90    N     0.62612   0.77029   0.46360   0.00000  Uiso   1.00
N91    N     0.13203   0.53047   0.26542   0.00000  Uiso   1.00
N92    N     0.91034   0.89315   0.42059   0.00000  Uiso   1.00
C93    C     0.25800   0.35765   0.15465   0.00000  Uiso   1.00
C94    C     0.15159   0.33721   0.12314   0.00000  Uiso   1.00
C95    C     0.05232   0.38468   0.11605   0.00000  Uiso   1.00
C96    C     0.96457   0.35534   0.08589   0.00000  Uiso   1.00
C97    C     0.79762   0.33485   0.04037   0.00000  Uiso   1.00
C98    C     0.28775   0.27110   0.17776   0.00000  Uiso   1.00
C99    C     0.30298   0.26301   0.21659   0.00000  Uiso   1.00
C100   C     0.32986   0.17802   0.23241   0.00000  Uiso   1.00
C101   C     0.37438   0.05492   0.27169   0.00000  Uiso   1.00
C102   C     0.34883   0.37106   0.13499   0.00000  Uiso   1.00
C103   C     0.41544   0.44700   0.13787   0.00000  Uiso   1.00
C104   C     0.49377   0.44617   0.11769   0.00000  Uiso   1.00
C105   C     0.63313   0.47828   0.09056   0.00000  Uiso   1.00
C106   C     0.27870   0.22112   0.11372   0.00000  Uiso   1.00
C107   C     0.16284   0.26305   0.10091   0.00000  Uiso   1.00
C108   C     0.07522   0.23363   0.07076   0.00000  Uiso   1.00
C109   C     0.97583   0.28105   0.06362   0.00000  Uiso   1.00
C110   C     0.29899   0.19695   0.15553   0.00000  Uiso   1.00
C111   C     0.32587   0.11195   0.17130   0.00000  Uiso   1.00
C112   C     0.34112   0.10373   0.21014   0.00000  Uiso   1.00
C113   C     0.36008   0.29691   0.11276   0.00000  Uiso   1.00
C114   C     0.43833   0.29595   0.09258   0.00000  Uiso   1.00
C115   C     0.50503   0.37188   0.09542   0.00000  Uiso   1.00
H116   H     0.24925   0.41538   0.17196   0.00000  Uiso   1.00
H117   H     0.04365   0.44206   0.13326   0.00000  Uiso   1.00
H118   H     0.29428   0.32041   0.23379   0.00000  Uiso   1.00
H119   H     0.40672   0.50438   0.15507   0.00000  Uiso   1.00
H120   H     0.82065   0.43892   0.08056   0.00000  Uiso   1.00
H121   H     0.34915   0.18242   0.29253   0.00000  Uiso   1.00
H122   H     0.58625   0.57035   0.12655   0.00000  Uiso   1.00
H123   H     0.28745   0.16338   0.09641   0.00000  Uiso   1.00
H124   H     0.08394   0.17624   0.05356   0.00000  Uiso   1.00
H125   H     0.33457   0.05458   0.15409   0.00000  Uiso   1.00
H126   H     0.44700   0.23855   0.07537   0.00000  Uiso   1.00
H127   H     0.85335   0.22317   0.01587   0.00000  Uiso   1.00
H128   H     0.38185   0.96666   0.22784   0.00000  Uiso   1.00
H129   H     0.61895   0.35460   0.06186   0.00000  Uiso   1.00
O130   O     0.70243   0.34403   0.02140   0.00000  Uiso   1.00
O131   O     0.39582   0.00751   0.29949   0.00000  Uiso   1.00
O132   O     0.70688   0.51647   0.08173   0.00000  Uiso   1.00
N133   N     0.85628   0.38639   0.07121   0.00000  Uiso   1.00
N134   N     0.35038   0.14657   0.26939   0.00000  Uiso   1.00
N135   N     0.57207   0.50925   0.11422   0.00000  Uiso   1.00
N136   N     0.87388   0.27029   0.03640   0.00000  Uiso   1.00
N137   N     0.36797   0.03047   0.23458   0.00000  Uiso   1.00
N138   N     0.58966   0.39315   0.07941   0.00000  Uiso   1.00
C139   C     0.75800   0.85765   0.15465   0.00000  Uiso   1.00
C140   C     0.65159   0.83721   0.12314   0.00000  Uiso   1.00
C141   C     0.55232   0.88468   0.11605   0.00000  Uiso   1.00
C142   C     0.46457   0.85534   0.08589   0.00000  Uiso   1.00
C143   C     0.29762   0.83485   0.04037   0.00000  Uiso   1.00
C144   C     0.78775   0.77110   0.17776   0.00000  Uiso   1.00
C145   C     0.80298   0.76301   0.21659   0.00000  Uiso   1.00
C146   C     0.82986   0.67802   0.23241   0.00000  Uiso   1.00
C147   C     0.87438   0.55492   0.27169   0.00000  Uiso   1.00
C148   C     0.84883   0.87106   0.13499   0.00000  Uiso   1.00
C149   C     0.91544   0.94700   0.13787   0.00000  Uiso   1.00
C150   C     0.99377   0.94617   0.11769   0.00000  Uiso   1.00
C151   C     0.13313   0.97828   0.09056   0.00000  Uiso   1.00
C152   C     0.77870   0.72112   0.11372   0.00000  Uiso   1.00
C153   C     0.66284   0.76305   0.10091   0.00000  Uiso   1.00
C154   C     0.57522   0.73363   0.07076   0.00000  Uiso   1.00
C155   C     0.47583   0.78105   0.06362   0.00000  Uiso   1.00
C156   C     0.79899   0.69695   0.15553   0.00000  Uiso   1.00
C157   C     0.82587   0.61195   0.17130   0.00000  Uiso   1.00
C158   C     0.84112   0.60373   0.21014   0.00000  Uiso   1.00
C159   C     0.86008   0.79691   0.11276   0.00000  Uiso   1.00
C160   C     0.93833   0.79595   0.09258   0.00000  Uiso   1.00
C161   C     0.00503   0.87188   0.09542   0.00000  Uiso   1.00
H162   H     0.74925   0.91538   0.17196   0.00000  Uiso   1.00
H163   H     0.54365   0.94206   0.13326   0.00000  Uiso   1.00
H164   H     0.79428   0.82041   0.23379   0.00000  Uiso   1.00
H165   H     0.90672   0.00438   0.15507   0.00000  Uiso   1.00
H166   H     0.32065   0.93892   0.08056   0.00000  Uiso   1.00
H167   H     0.84915   0.68242   0.29253   0.00000  Uiso   1.00
H168   H     0.08625   0.07035   0.12655   0.00000  Uiso   1.00
H169   H     0.78745   0.66338   0.09641   0.00000  Uiso   1.00
H170   H     0.58394   0.67624   0.05356   0.00000  Uiso   1.00
H171   H     0.83457   0.55458   0.15409   0.00000  Uiso   1.00
H172   H     0.94700   0.73855   0.07537   0.00000  Uiso   1.00
H173   H     0.35335   0.72317   0.01587   0.00000  Uiso   1.00
H174   H     0.88185   0.46666   0.22784   0.00000  Uiso   1.00
H175   H     0.11895   0.85460   0.06186   0.00000  Uiso   1.00
O176   O     0.20243   0.84403   0.02140   0.00000  Uiso   1.00
O177   O     0.89582   0.50751   0.29949   0.00000  Uiso   1.00
O178   O     0.20688   0.01647   0.08173   0.00000  Uiso   1.00
N179   N     0.35628   0.88639   0.07121   0.00000  Uiso   1.00
N180   N     0.85038   0.64657   0.26939   0.00000  Uiso   1.00
N181   N     0.07207   0.00925   0.11422   0.00000  Uiso   1.00
N182   N     0.37388   0.77029   0.03640   0.00000  Uiso   1.00
N183   N     0.86797   0.53047   0.23458   0.00000  Uiso   1.00
N184   N     0.08966   0.89315   0.07941   0.00000  Uiso   1.00
C185   C     0.25800   0.64235   0.65465   0.00000  Uiso   1.00
C186   C     0.15159   0.66279   0.62314   0.00000  Uiso   1.00
C187   C     0.05232   0.61532   0.61605   0.00000  Uiso   1.00
C188   C     0.96457   0.64466   0.58589   0.00000  Uiso   1.00
C189   C     0.79762   0.66515   0.54037   0.00000  Uiso   1.00
C190   C     0.28775   0.72890   0.67776   0.00000  Uiso   1.00
C191   C     0.30298   0.73699   0.71659   0.00000  Uiso   1.00
C192   C     0.32986   0.82198   0.73241   0.00000  Uiso   1.00
C193   C     0.37438   0.94508   0.77169   0.00000  Uiso   1.00
C194   C     0.34883   0.62894   0.63499   0.00000  Uiso   1.00
C195   C     0.41544   0.55300   0.63787   0.00000  Uiso   1.00
C196   C     0.49377   0.55383   0.61769   0.00000  Uiso   1.00
C197   C     0.63313   0.52172   0.59056   0.00000  Uiso   1.00
C198   C     0.27870   0.77888   0.61372   0.00000  Uiso   1.00
C199   C     0.16284   0.73695   0.60091   0.00000  Uiso   1.00
C200   C     0.07522   0.76637   0.57076   0.00000  Uiso   1.00
C201   C     0.97583   0.71895   0.56362   0.00000  Uiso   1.00
C202   C     0.29899   0.80305   0.65553   0.00000  Uiso   1.00
C203   C     0.32587   0.88805   0.67130   0.00000  Uiso   1.00
C204   C     0.34112   0.89627   0.71014   0.00000  Uiso   1.00
C205   C     0.36008   0.70309   0.61276   0.00000  Uiso   1.00
C206   C     0.43833   0.70405   0.59258   0.00000  Uiso   1.00
C207   C     0.50503   0.62812   0.59542   0.00000  Uiso   1.00
H208   H     0.24925   0.58462   0.67196   0.00000  Uiso   1.00
H209   H     0.04365   0.55794   0.63326   0.00000  Uiso   1.00
H210   H     0.29428   0.67959   0.73379   0.00000  Uiso   1.00
H211   H     0.40672   0.49562   0.65507   0.00000  Uiso   1.00
H212   H     0.82065   0.56108   0.58056   0.00000  Uiso   1.00
H213   H     0.34915   0.81758   0.79253   0.00000  Uiso   1.00
H214   H     0.58625   0.42965   0.62655   0.00000  Uiso   1.00
H215   H     0.28745   0.83662   0.59641   0.00000  Uiso   1.00
H216   H     0.08394   0.82376   0.55356   0.00000  Uiso   1.00
H217   H     0.33457   0.94542   0.65409   0.00000  Uiso   1.00
H218   H     0.44700   0.76145   0.57537   0.00000  Uiso   1.00
H219   H     0.85335   0.77683   0.51587   0.00000  Uiso   1.00
H220   H     0.38185   0.03334   0.72784   0.00000  Uiso   1.00
H221   H     0.61895   0.64540   0.56186   0.00000  Uiso   1.00
O222   O     0.70243   0.65597   0.52140   0.00000  Uiso   1.00
O223   O     0.39582   0.99249   0.79949   0.00000  Uiso   1.00
O224   O     0.70688   0.48353   0.58173   0.00000  Uiso   1.00
N225   N     0.85628   0.61361   0.57121   0.00000  Uiso   1.00
N226   N     0.35038   0.85343   0.76939   0.00000  Uiso   1.00
N227   N     0.57207   0.49075   0.61422   0.00000  Uiso   1.00
N228   N     0.87388   0.72971   0.53640   0.00000  Uiso   1.00
N229   N     0.36797   0.96953   0.73458   0.00000  Uiso   1.00
N230   N     0.58966   0.60685   0.57941   0.00000  Uiso   1.00
C231   C     0.75800   0.14235   0.65465   0.00000  Uiso   1.00
C232   C     0.65159   0.16279   0.62314   0.00000  Uiso   1.00
C233   C     0.55232   0.11532   0.61605   0.00000  Uiso   1.00
C234   C     0.46457   0.14466   0.58589   0.00000  Uiso   1.00
C235   C     0.29762   0.16515   0.54037   0.00000  Uiso   1.00
C236   C     0.78775   0.22890   0.67776   0.00000  Uiso   1.00
C237   C     0.80298   0.23699   0.71659   0.00000  Uiso   1.00
C238   C     0.82986   0.32198   0.73241   0.00000  Uiso   1.00
C239   C     0.87438   0.44508   0.77169   0.00000  Uiso   1.00
C240   C     0.84883   0.12894   0.63499   0.00000  Uiso   1.00
C241   C     0.91544   0.05300   0.63787   0.00000  Uiso   1.00
C242   C     0.99377   0.05383   0.61769   0.00000  Uiso   1.00
C243   C     0.13313   0.02172   0.59056   0.00000  Uiso   1.00
C244   C     0.77870   0.27888   0.61372   0.00000  Uiso   1.00
C245   C     0.66284   0.23695   0.60091   0.00000  Uiso   1.00
C246   C     0.57522   0.26637   0.57076   0.00000  Uiso   1.00
C247   C     0.47583   0.21895   0.56362   0.00000  Uiso   1.00
C248   C     0.79899   0.30305   0.65553   0.00000  Uiso   1.00
C249   C     0.82587   0.38805   0.67130   0.00000  Uiso   1.00
C250   C     0.84112   0.39627   0.71014   0.00000  Uiso   1.00
C251   C     0.86008   0.20309   0.61276   0.00000  Uiso   1.00
C252   C     0.93833   0.20405   0.59258   0.00000  Uiso   1.00
C253   C     0.00503   0.12812   0.59542   0.00000  Uiso   1.00
H254   H     0.74925   0.08462   0.67196   0.00000  Uiso   1.00
H255   H     0.54365   0.05794   0.63326   0.00000  Uiso   1.00
H256   H     0.79428   0.17959   0.73379   0.00000  Uiso   1.00
H257   H     0.90672   0.99562   0.65507   0.00000  Uiso   1.00
H258   H     0.32065   0.06108   0.58056   0.00000  Uiso   1.00
H259   H     0.84915   0.31758   0.79253   0.00000  Uiso   1.00
H260   H     0.08625   0.92965   0.62655   0.00000  Uiso   1.00
H261   H     0.78745   0.33662   0.59641   0.00000  Uiso   1.00
H262   H     0.58394   0.32376   0.55356   0.00000  Uiso   1.00
H263   H     0.83457   0.44542   0.65409   0.00000  Uiso   1.00
H264   H     0.94700   0.26145   0.57537   0.00000  Uiso   1.00
H265   H     0.35335   0.27683   0.51587   0.00000  Uiso   1.00
H266   H     0.88185   0.53334   0.72784   0.00000  Uiso   1.00
H267   H     0.11895   0.14540   0.56186   0.00000  Uiso   1.00
O268   O     0.20243   0.15597   0.52140   0.00000  Uiso   1.00
O269   O     0.89582   0.49249   0.79949   0.00000  Uiso   1.00
O270   O     0.20688   0.98353   0.58173   0.00000  Uiso   1.00
N271   N     0.35628   0.11361   0.57121   0.00000  Uiso   1.00
N272   N     0.85038   0.35343   0.76939   0.00000  Uiso   1.00
N273   N     0.07207   0.99075   0.61422   0.00000  Uiso   1.00
N274   N     0.37388   0.22971   0.53640   0.00000  Uiso   1.00
N275   N     0.86797   0.46953   0.73458   0.00000  Uiso   1.00
N276   N     0.08966   0.10685   0.57941   0.00000  Uiso   1.00
C277   C     0.74200   0.64235   0.84535   0.00000  Uiso   1.00
C278   C     0.84841   0.66279   0.87686   0.00000  Uiso   1.00
C279   C     0.94768   0.61532   0.88395   0.00000  Uiso   1.00
C280   C     0.03543   0.64466   0.91411   0.00000  Uiso   1.00
C281   C     0.20238   0.66515   0.95963   0.00000  Uiso   1.00
C282   C     0.71225   0.72890   0.82224   0.00000  Uiso   1.00
C283   C     0.69702   0.73699   0.78341   0.00000  Uiso   1.00
C284   C     0.67014   0.82198   0.76759   0.00000  Uiso   1.00
C285   C     0.62562   0.94508   0.72831   0.00000  Uiso   1.00
C286   C     0.65117   0.62894   0.86501   0.00000  Uiso   1.00
C287   C     0.58456   0.55300   0.86213   0.00000  Uiso   1.00
C288   C     0.50623   0.55383   0.88231   0.00000  Uiso   1.00
C289   C     0.36687   0.52172   0.90944   0.00000  Uiso   1.00
C290   C     0.72130   0.77888   0.88628   0.00000  Uiso   1.00
C291   C     0.83716   0.73695   0.89909   0.00000  Uiso   1.00
C292   C     0.92478   0.76637   0.92924   0.00000  Uiso   1.00
C293   C     0.02417   0.71895   0.93638   0.00000  Uiso   1.00
C294   C     0.70101   0.80305   0.84447   0.00000  Uiso   1.00
C295   C     0.67413   0.88805   0.82870   0.00000  Uiso   1.00
C296   C     0.65888   0.89627   0.78986   0.00000  Uiso   1.00
C297   C     0.63992   0.70309   0.88724   0.00000  Uiso   1.00
C298   C     0.56167   0.70405   0.90742   0.00000  Uiso   1.00
C299   C     0.49497   0.62812   0.90458   0.00000  Uiso   1.00
H300   H     0.75075   0.58462   0.82804   0.00000  Uiso   1.00
H301   H     0.95635   0.55794   0.86674   0.00000  Uiso   1.00
H302   H     0.70572   0.67959   0.76621   0.00000  Uiso   1.00
H303   H     0.59328   0.49562   0.84493   0.00000  Uiso   1.00
H304   H     0.17935   0.56108   0.91944   0.00000  Uiso   1.00
H305   H     0.65085   0.81758   0.70747   0.00000  Uiso   1.00
H306   H     0.41375   0.42965   0.87345   0.00000  Uiso   1.00
H307   H     0.71255   0.83662   0.90359   0.00000  Uiso   1.00
H308   H     0.91606   0.82376   0.94644   0.00000  Uiso   1.00
H309   H     0.66543   0.94542   0.84591   0.00000  Uiso   1.00
H310   H     0.55300   0.76145   0.92463   0.00000  Uiso   1.00
H311   H     0.14665   0.77683   0.98413   0.00000  Uiso   1.00
H312   H     0.61815   0.03334   0.77216   0.00000  Uiso   1.00
H313   H     0.38105   0.64540   0.93814   0.00000  Uiso   1.00
O314   O     0.29757   0.65597   0.97860   0.00000  Uiso   1.00
O315   O     0.60418   0.99249   0.70051   0.00000  Uiso   1.00
O316   O     0.29312   0.48353   0.91827   0.00000  Uiso   1.00
N317   N     0.14372   0.61361   0.92879   0.00000  Uiso   1.00
N318   N     0.64962   0.85343   0.73061   0.00000  Uiso   1.00
N319   N     0.42793   0.49075   0.88578   0.00000  Uiso   1.00
N320   N     0.12612   0.72971   0.96360   0.00000  Uiso   1.00
N321   N     0.63203   0.96953   0.76542   0.00000  Uiso   1.00
N322   N     0.41034   0.60685   0.92059   0.00000  Uiso   1.00
C323   C     0.24200   0.14235   0.84535   0.00000  Uiso   1.00
C324   C     0.34841   0.16279   0.87686   0.00000  Uiso   1.00
C325   C     0.44768   0.11532   0.88395   0.00000  Uiso   1.00
C326   C     0.53543   0.14466   0.91411   0.00000  Uiso   1.00
C327   C     0.70238   0.16515   0.95963   0.00000  Uiso   1.00
C328   C     0.21225   0.22890   0.82224   0.00000  Uiso   1.00
C329   C     0.19702   0.23699   0.78341   0.00000  Uiso   1.00
C330   C     0.17014   0.32198   0.76759   0.00000  Uiso   1.00
C331   C     0.12562   0.44508   0.72831   0.00000  Uiso   1.00
C332   C     0.15117   0.12894   0.86501   0.00000  Uiso   1.00
C333   C     0.08456   0.05300   0.86213   0.00000  Uiso   1.00
C334   C     0.00623   0.05383   0.88231   0.00000  Uiso   1.00
C335   C     0.86687   0.02172   0.90944   0.00000  Uiso   1.00
C336   C     0.22130   0.27888   0.88628   0.00000  Uiso   1.00
C337   C     0.33716   0.23695   0.89909   0.00000  Uiso   1.00
C338   C     0.42478   0.26637   0.92924   0.00000  Uiso   1.00
C339   C     0.52417   0.21895   0.93638   0.00000  Uiso   1.00
C340   C     0.20101   0.30305   0.84447   0.00000  Uiso   1.00
C341   C     0.17413   0.38805   0.82870   0.00000  Uiso   1.00
C342   C     0.15888   0.39627   0.78986   0.00000  Uiso   1.00
C343   C     0.13992   0.20309   0.88724   0.00000  Uiso   1.00
C344   C     0.06167   0.20405   0.90742   0.00000  Uiso   1.00
C345   C     0.99497   0.12812   0.90458   0.00000  Uiso   1.00
H346   H     0.25075   0.08462   0.82804   0.00000  Uiso   1.00
H347   H     0.45635   0.05794   0.86674   0.00000  Uiso   1.00
H348   H     0.20572   0.17959   0.76621   0.00000  Uiso   1.00
H349   H     0.09328   0.99562   0.84493   0.00000  Uiso   1.00
H350   H     0.67935   0.06108   0.91944   0.00000  Uiso   1.00
H351   H     0.15085   0.31758   0.70747   0.00000  Uiso   1.00
H352   H     0.91375   0.92965   0.87345   0.00000  Uiso   1.00
H353   H     0.21255   0.33662   0.90359   0.00000  Uiso   1.00
H354   H     0.41606   0.32376   0.94644   0.00000  Uiso   1.00
H355   H     0.16543   0.44542   0.84591   0.00000  Uiso   1.00
H356   H     0.05300   0.26145   0.92463   0.00000  Uiso   1.00
H357   H     0.64665   0.27683   0.98413   0.00000  Uiso   1.00
H358   H     0.11815   0.53334   0.77216   0.00000  Uiso   1.00
H359   H     0.88105   0.14540   0.93814   0.00000  Uiso   1.00
O360   O     0.79757   0.15597   0.97860   0.00000  Uiso   1.00
O361   O     0.10418   0.49249   0.70051   0.00000  Uiso   1.00
O362   O     0.79312   0.98353   0.91827   0.00000  Uiso   1.00
N363   N     0.64372   0.11361   0.92879   0.00000  Uiso   1.00
N364   N     0.14962   0.35343   0.73061   0.00000  Uiso   1.00
N365   N     0.92793   0.99075   0.88578   0.00000  Uiso   1.00
N366   N     0.62612   0.22971   0.96360   0.00000  Uiso   1.00
N367   N     0.13203   0.46953   0.76542   0.00000  Uiso   1.00
N368   N     0.91034   0.10685   0.92059   0.00000  Uiso   1.00
