data_job_01335
_audit_creation_date              2018-12-19
_audit_creation_method            'Materials Studio'
_symmetry_space_group_name_H-M    'P1'
_symmetry_Int_Tables_number       1
_symmetry_cell_setting            triclinic
loop_
_symmetry_equiv_pos_as_xyz
  x,y,z
_cell_length_a                    31.1847
_cell_length_b                    12.4611
_cell_length_c                    12.9803
_cell_angle_alpha                 90.0000
_cell_angle_beta                  90.0000
_cell_angle_gamma                 90.0000
loop_
_atom_site_label
_atom_site_type_symbol
_atom_site_fract_x
_atom_site_fract_y
_atom_site_fract_z
_atom_site_U_iso_or_equiv
_atom_site_adp_type
_atom_site_occupancy
C1     C     0.11573   0.93465   0.60174   0.00000  Uiso   1.00
C2     C     0.09942   0.01242   0.68355   0.00000  Uiso   1.00
C3     C     0.07650   0.10590   0.66495   0.00000  Uiso   1.00
C4     C     0.06450   0.16611   0.75020   0.00000  Uiso   1.00
C5     C     0.03759   0.29179   0.86198   0.00000  Uiso   1.00
C6     C     0.16399   0.92564   0.61857   0.00000  Uiso   1.00
C7     C     0.19536   0.94614   0.54533   0.00000  Uiso   1.00
C8     C     0.23772   0.93329   0.57589   0.00000  Uiso   1.00
C9     C     0.31105   0.92417   0.58677   0.00000  Uiso   1.00
C10    C     0.09710   0.82527   0.62952   0.00000  Uiso   1.00
C11    C     0.07225   0.76135   0.56548   0.00000  Uiso   1.00
C12    C     0.05830   0.66398   0.60524   0.00000  Uiso   1.00
C13    C     0.02779   0.49902   0.63313   0.00000  Uiso   1.00
C14    C     0.13517   0.87536   0.78622   0.00000  Uiso   1.00
C15    C     0.10998   0.98021   0.78375   0.00000  Uiso   1.00
C16    C     0.09801   0.04030   0.86905   0.00000  Uiso   1.00
C17    C     0.07508   0.13385   0.85058   0.00000  Uiso   1.00
C18    C     0.17455   0.89344   0.71877   0.00000  Uiso   1.00
C19    C     0.21687   0.88054   0.74944   0.00000  Uiso   1.00
C20    C     0.24830   0.90103   0.67627   0.00000  Uiso   1.00
C21    C     0.10766   0.79306   0.72972   0.00000  Uiso   1.00
C22    C     0.09376   0.69576   0.76959   0.00000  Uiso   1.00
C23    C     0.06888   0.63172   0.70563   0.00000  Uiso   1.00
H24    H     0.10751   0.95972   0.52372   0.00000  Uiso   1.00
H25    H     0.06834   0.13080   0.58739   0.00000  Uiso   1.00
H26    H     0.18718   0.97106   0.46779   0.00000  Uiso   1.00
H27    H     0.06408   0.78630   0.48794   0.00000  Uiso   1.00
H28    H     0.02958   0.30628   0.70216   0.00000  Uiso   1.00
H29    H     0.28016   0.96943   0.44997   0.00000  Uiso   1.00
H30    H     0.02059   0.57983   0.49246   0.00000  Uiso   1.00
H31    H     0.14339   0.85028   0.86423   0.00000  Uiso   1.00
H32    H     0.10619   0.01535   0.94659   0.00000  Uiso   1.00
H33    H     0.22503   0.85562   0.82698   0.00000  Uiso   1.00
H34    H     0.10193   0.67086   0.84713   0.00000  Uiso   1.00
H35    H     0.06030   0.21259   0.99370   0.00000  Uiso   1.00
H36    H     0.31089   0.87573   0.74150   0.00000  Uiso   1.00
H37    H     0.05131   0.48614   0.78399   0.00000  Uiso   1.00
O38    O     0.01983   0.37002   0.89596   0.00000  Uiso   1.00
O39    O     0.34858   0.92805   0.56509   0.00000  Uiso   1.00
O40    O     0.00803   0.41693   0.62083   0.00000  Uiso   1.00
N41    N     0.04191   0.26157   0.75947   0.00000  Uiso   1.00
N42    N     0.27619   0.94664   0.52370   0.00000  Uiso   1.00
N43    N     0.03352   0.58239   0.56341   0.00000  Uiso   1.00
N44    N     0.05844   0.21115   0.91635   0.00000  Uiso   1.00
N45    N     0.29272   0.89623   0.68057   0.00000  Uiso   1.00
N46    N     0.05005   0.53198   0.72028   0.00000  Uiso   1.00
C47    C     0.38427   0.56535   0.60174   0.00000  Uiso   1.00
C48    C     0.40058   0.48758   0.68355   0.00000  Uiso   1.00
C49    C     0.42350   0.39410   0.66495   0.00000  Uiso   1.00
C50    C     0.43550   0.33389   0.75020   0.00000  Uiso   1.00
C51    C     0.46241   0.20821   0.86198   0.00000  Uiso   1.00
C52    C     0.33601   0.57436   0.61857   0.00000  Uiso   1.00
C53    C     0.30464   0.55386   0.54533   0.00000  Uiso   1.00
C54    C     0.26228   0.56671   0.57589   0.00000  Uiso   1.00
C55    C     0.18895   0.57583   0.58677   0.00000  Uiso   1.00
C56    C     0.40290   0.67473   0.62952   0.00000  Uiso   1.00
C57    C     0.42775   0.73865   0.56548   0.00000  Uiso   1.00
C58    C     0.44170   0.83602   0.60524   0.00000  Uiso   1.00
C59    C     0.47221   0.00098   0.63313   0.00000  Uiso   1.00
C60    C     0.36483   0.62464   0.78622   0.00000  Uiso   1.00
C61    C     0.39002   0.51979   0.78375   0.00000  Uiso   1.00
C62    C     0.40199   0.45970   0.86905   0.00000  Uiso   1.00
C63    C     0.42492   0.36615   0.85058   0.00000  Uiso   1.00
C64    C     0.32545   0.60656   0.71877   0.00000  Uiso   1.00
C65    C     0.28313   0.61946   0.74944   0.00000  Uiso   1.00
C66    C     0.25170   0.59897   0.67627   0.00000  Uiso   1.00
C67    C     0.39234   0.70694   0.72972   0.00000  Uiso   1.00
C68    C     0.40624   0.80424   0.76959   0.00000  Uiso   1.00
C69    C     0.43112   0.86828   0.70563   0.00000  Uiso   1.00
H70    H     0.39249   0.54028   0.52372   0.00000  Uiso   1.00
H71    H     0.43166   0.36920   0.58739   0.00000  Uiso   1.00
H72    H     0.31282   0.52894   0.46779   0.00000  Uiso   1.00
H73    H     0.43592   0.71370   0.48794   0.00000  Uiso   1.00
H74    H     0.47042   0.19372   0.70216   0.00000  Uiso   1.00
H75    H     0.21984   0.53057   0.44997   0.00000  Uiso   1.00
H76    H     0.47941   0.92017   0.49246   0.00000  Uiso   1.00
H77    H     0.35661   0.64972   0.86423   0.00000  Uiso   1.00
H78    H     0.39381   0.48465   0.94659   0.00000  Uiso   1.00
H79    H     0.27497   0.64438   0.82698   0.00000  Uiso   1.00
H80    H     0.39807   0.82914   0.84713   0.00000  Uiso   1.00
H81    H     0.43970   0.28741   0.99370   0.00000  Uiso   1.00
H82    H     0.18911   0.62427   0.74150   0.00000  Uiso   1.00
H83    H     0.44869   0.01386   0.78399   0.00000  Uiso   1.00
O84    O     0.48017   0.12998   0.89596   0.00000  Uiso   1.00
O85    O     0.15142   0.57195   0.56509   0.00000  Uiso   1.00
O86    O     0.49197   0.08307   0.62083   0.00000  Uiso   1.00
N87    N     0.45809   0.23843   0.75947   0.00000  Uiso   1.00
N88    N     0.22381   0.55336   0.52370   0.00000  Uiso   1.00
N89    N     0.46648   0.91761   0.56341   0.00000  Uiso   1.00
N90    N     0.44156   0.28885   0.91635   0.00000  Uiso   1.00
N91    N     0.20728   0.60377   0.68057   0.00000  Uiso   1.00
N92    N     0.44995   0.96802   0.72028   0.00000  Uiso   1.00
C93    C     0.88427   0.43465   0.89826   0.00000  Uiso   1.00
C94    C     0.90058   0.51242   0.81645   0.00000  Uiso   1.00
C95    C     0.92350   0.60590   0.83505   0.00000  Uiso   1.00
C96    C     0.93550   0.66611   0.74980   0.00000  Uiso   1.00
C97    C     0.96241   0.79179   0.63802   0.00000  Uiso   1.00
C98    C     0.83601   0.42564   0.88143   0.00000  Uiso   1.00
C99    C     0.80464   0.44614   0.95467   0.00000  Uiso   1.00
C100   C     0.76228   0.43329   0.92411   0.00000  Uiso   1.00
C101   C     0.68895   0.42417   0.91323   0.00000  Uiso   1.00
C102   C     0.90290   0.32527   0.87048   0.00000  Uiso   1.00
C103   C     0.92775   0.26135   0.93452   0.00000  Uiso   1.00
C104   C     0.94170   0.16398   0.89476   0.00000  Uiso   1.00
C105   C     0.97221   0.99902   0.86687   0.00000  Uiso   1.00
C106   C     0.86483   0.37536   0.71378   0.00000  Uiso   1.00
C107   C     0.89002   0.48021   0.71625   0.00000  Uiso   1.00
C108   C     0.90199   0.54030   0.63095   0.00000  Uiso   1.00
C109   C     0.92492   0.63385   0.64942   0.00000  Uiso   1.00
C110   C     0.82545   0.39344   0.78123   0.00000  Uiso   1.00
C111   C     0.78313   0.38054   0.75056   0.00000  Uiso   1.00
C112   C     0.75170   0.40103   0.82373   0.00000  Uiso   1.00
C113   C     0.89234   0.29306   0.77028   0.00000  Uiso   1.00
C114   C     0.90624   0.19576   0.73041   0.00000  Uiso   1.00
C115   C     0.93112   0.13172   0.79437   0.00000  Uiso   1.00
H116   H     0.89249   0.45972   0.97628   0.00000  Uiso   1.00
H117   H     0.93166   0.63080   0.91261   0.00000  Uiso   1.00
H118   H     0.81282   0.47106   0.03221   0.00000  Uiso   1.00
H119   H     0.93592   0.28630   0.01206   0.00000  Uiso   1.00
H120   H     0.97042   0.80628   0.79784   0.00000  Uiso   1.00
H121   H     0.71984   0.46943   0.05003   0.00000  Uiso   1.00
H122   H     0.97941   0.07983   0.00754   0.00000  Uiso   1.00
H123   H     0.85661   0.35028   0.63577   0.00000  Uiso   1.00
H124   H     0.89381   0.51535   0.55341   0.00000  Uiso   1.00
H125   H     0.77497   0.35562   0.67302   0.00000  Uiso   1.00
H126   H     0.89807   0.17086   0.65287   0.00000  Uiso   1.00
H127   H     0.93970   0.71259   0.50630   0.00000  Uiso   1.00
H128   H     0.68911   0.37573   0.75850   0.00000  Uiso   1.00
H129   H     0.94869   0.98614   0.71601   0.00000  Uiso   1.00
O130   O     0.98017   0.87002   0.60404   0.00000  Uiso   1.00
O131   O     0.65142   0.42805   0.93491   0.00000  Uiso   1.00
O132   O     0.99197   0.91693   0.87917   0.00000  Uiso   1.00
N133   N     0.95809   0.76157   0.74053   0.00000  Uiso   1.00
N134   N     0.72381   0.44664   0.97630   0.00000  Uiso   1.00
N135   N     0.96648   0.08239   0.93659   0.00000  Uiso   1.00
N136   N     0.94156   0.71115   0.58365   0.00000  Uiso   1.00
N137   N     0.70728   0.39623   0.81943   0.00000  Uiso   1.00
N138   N     0.94995   0.03198   0.77972   0.00000  Uiso   1.00
C139   C     0.61573   0.06535   0.89826   0.00000  Uiso   1.00
C140   C     0.59942   0.98758   0.81645   0.00000  Uiso   1.00
C141   C     0.57650   0.89410   0.83505   0.00000  Uiso   1.00
C142   C     0.56450   0.83389   0.74980   0.00000  Uiso   1.00
C143   C     0.53759   0.70821   0.63802   0.00000  Uiso   1.00
C144   C     0.66399   0.07436   0.88143   0.00000  Uiso   1.00
C145   C     0.69536   0.05386   0.95467   0.00000  Uiso   1.00
C146   C     0.73772   0.06671   0.92411   0.00000  Uiso   1.00
C147   C     0.81105   0.07583   0.91323   0.00000  Uiso   1.00
C148   C     0.59710   0.17473   0.87048   0.00000  Uiso   1.00
C149   C     0.57225   0.23865   0.93452   0.00000  Uiso   1.00
C150   C     0.55830   0.33602   0.89476   0.00000  Uiso   1.00
C151   C     0.52779   0.50098   0.86687   0.00000  Uiso   1.00
C152   C     0.63517   0.12464   0.71378   0.00000  Uiso   1.00
C153   C     0.60998   0.01979   0.71625   0.00000  Uiso   1.00
C154   C     0.59801   0.95970   0.63095   0.00000  Uiso   1.00
C155   C     0.57508   0.86615   0.64942   0.00000  Uiso   1.00
C156   C     0.67455   0.10656   0.78123   0.00000  Uiso   1.00
C157   C     0.71687   0.11946   0.75056   0.00000  Uiso   1.00
C158   C     0.74830   0.09897   0.82373   0.00000  Uiso   1.00
C159   C     0.60766   0.20694   0.77028   0.00000  Uiso   1.00
C160   C     0.59376   0.30424   0.73041   0.00000  Uiso   1.00
C161   C     0.56888   0.36828   0.79437   0.00000  Uiso   1.00
H162   H     0.60751   0.04028   0.97628   0.00000  Uiso   1.00
H163   H     0.56834   0.86920   0.91261   0.00000  Uiso   1.00
H164   H     0.68718   0.02894   0.03221   0.00000  Uiso   1.00
H165   H     0.56408   0.21370   0.01206   0.00000  Uiso   1.00
H166   H     0.52958   0.69372   0.79784   0.00000  Uiso   1.00
H167   H     0.78016   0.03057   0.05003   0.00000  Uiso   1.00
H168   H     0.52059   0.42017   0.00754   0.00000  Uiso   1.00
H169   H     0.64339   0.14972   0.63577   0.00000  Uiso   1.00
H170   H     0.60619   0.98465   0.55341   0.00000  Uiso   1.00
H171   H     0.72503   0.14438   0.67302   0.00000  Uiso   1.00
H172   H     0.60193   0.32914   0.65287   0.00000  Uiso   1.00
H173   H     0.56030   0.78741   0.50630   0.00000  Uiso   1.00
H174   H     0.81089   0.12427   0.75850   0.00000  Uiso   1.00
H175   H     0.55131   0.51386   0.71601   0.00000  Uiso   1.00
O176   O     0.51983   0.62998   0.60404   0.00000  Uiso   1.00
O177   O     0.84858   0.07195   0.93491   0.00000  Uiso   1.00
O178   O     0.50803   0.58307   0.87917   0.00000  Uiso   1.00
N179   N     0.54191   0.73843   0.74053   0.00000  Uiso   1.00
N180   N     0.77619   0.05336   0.97630   0.00000  Uiso   1.00
N181   N     0.53352   0.41761   0.93659   0.00000  Uiso   1.00
N182   N     0.55844   0.78885   0.58365   0.00000  Uiso   1.00
N183   N     0.79272   0.10377   0.81943   0.00000  Uiso   1.00
N184   N     0.55005   0.46802   0.77972   0.00000  Uiso   1.00
C185   C     0.88427   0.06535   0.39826   0.00000  Uiso   1.00
C186   C     0.90058   0.98758   0.31645   0.00000  Uiso   1.00
C187   C     0.92350   0.89410   0.33505   0.00000  Uiso   1.00
C188   C     0.93550   0.83389   0.24980   0.00000  Uiso   1.00
C189   C     0.96241   0.70821   0.13802   0.00000  Uiso   1.00
C190   C     0.83601   0.07436   0.38143   0.00000  Uiso   1.00
C191   C     0.80464   0.05386   0.45467   0.00000  Uiso   1.00
C192   C     0.76228   0.06671   0.42411   0.00000  Uiso   1.00
C193   C     0.68895   0.07583   0.41323   0.00000  Uiso   1.00
C194   C     0.90290   0.17473   0.37048   0.00000  Uiso   1.00
C195   C     0.92775   0.23865   0.43452   0.00000  Uiso   1.00
C196   C     0.94170   0.33602   0.39476   0.00000  Uiso   1.00
C197   C     0.97221   0.50098   0.36687   0.00000  Uiso   1.00
C198   C     0.86483   0.12464   0.21378   0.00000  Uiso   1.00
C199   C     0.89002   0.01979   0.21625   0.00000  Uiso   1.00
C200   C     0.90199   0.95970   0.13095   0.00000  Uiso   1.00
C201   C     0.92492   0.86615   0.14942   0.00000  Uiso   1.00
C202   C     0.82545   0.10656   0.28123   0.00000  Uiso   1.00
C203   C     0.78313   0.11946   0.25056   0.00000  Uiso   1.00
C204   C     0.75170   0.09897   0.32373   0.00000  Uiso   1.00
C205   C     0.89234   0.20694   0.27028   0.00000  Uiso   1.00
C206   C     0.90624   0.30424   0.23041   0.00000  Uiso   1.00
C207   C     0.93112   0.36828   0.29437   0.00000  Uiso   1.00
H208   H     0.89249   0.04028   0.47628   0.00000  Uiso   1.00
H209   H     0.93166   0.86920   0.41261   0.00000  Uiso   1.00
H210   H     0.81282   0.02894   0.53221   0.00000  Uiso   1.00
H211   H     0.93592   0.21370   0.51206   0.00000  Uiso   1.00
H212   H     0.97042   0.69372   0.29784   0.00000  Uiso   1.00
H213   H     0.71984   0.03057   0.55003   0.00000  Uiso   1.00
H214   H     0.97941   0.42017   0.50754   0.00000  Uiso   1.00
H215   H     0.85661   0.14972   0.13577   0.00000  Uiso   1.00
H216   H     0.89381   0.98465   0.05341   0.00000  Uiso   1.00
H217   H     0.77497   0.14438   0.17302   0.00000  Uiso   1.00
H218   H     0.89807   0.32914   0.15287   0.00000  Uiso   1.00
H219   H     0.93970   0.78741   0.00630   0.00000  Uiso   1.00
H220   H     0.68911   0.12427   0.25850   0.00000  Uiso   1.00
H221   H     0.94869   0.51386   0.21601   0.00000  Uiso   1.00
O222   O     0.98017   0.62998   0.10404   0.00000  Uiso   1.00
O223   O     0.65142   0.07195   0.43491   0.00000  Uiso   1.00
O224   O     0.99197   0.58307   0.37917   0.00000  Uiso   1.00
N225   N     0.95809   0.73843   0.24053   0.00000  Uiso   1.00
N226   N     0.72381   0.05336   0.47630   0.00000  Uiso   1.00
N227   N     0.96648   0.41761   0.43659   0.00000  Uiso   1.00
N228   N     0.94156   0.78885   0.08365   0.00000  Uiso   1.00
N229   N     0.70728   0.10377   0.31943   0.00000  Uiso   1.00
N230   N     0.94995   0.46802   0.27972   0.00000  Uiso   1.00
C231   C     0.61573   0.43465   0.39826   0.00000  Uiso   1.00
C232   C     0.59942   0.51242   0.31645   0.00000  Uiso   1.00
C233   C     0.57650   0.60590   0.33505   0.00000  Uiso   1.00
C234   C     0.56450   0.66611   0.24980   0.00000  Uiso   1.00
C235   C     0.53759   0.79179   0.13802   0.00000  Uiso   1.00
C236   C     0.66399   0.42564   0.38143   0.00000  Uiso   1.00
C237   C     0.69536   0.44614   0.45467   0.00000  Uiso   1.00
C238   C     0.73772   0.43329   0.42411   0.00000  Uiso   1.00
C239   C     0.81105   0.42417   0.41323   0.00000  Uiso   1.00
C240   C     0.59710   0.32527   0.37048   0.00000  Uiso   1.00
C241   C     0.57225   0.26135   0.43452   0.00000  Uiso   1.00
C242   C     0.55830   0.16398   0.39476   0.00000  Uiso   1.00
C243   C     0.52779   0.99902   0.36687   0.00000  Uiso   1.00
C244   C     0.63517   0.37536   0.21378   0.00000  Uiso   1.00
C245   C     0.60998   0.48021   0.21625   0.00000  Uiso   1.00
C246   C     0.59801   0.54030   0.13095   0.00000  Uiso   1.00
C247   C     0.57508   0.63385   0.14942   0.00000  Uiso   1.00
C248   C     0.67455   0.39344   0.28123   0.00000  Uiso   1.00
C249   C     0.71687   0.38054   0.25056   0.00000  Uiso   1.00
C250   C     0.74830   0.40103   0.32373   0.00000  Uiso   1.00
C251   C     0.60766   0.29306   0.27028   0.00000  Uiso   1.00
C252   C     0.59376   0.19576   0.23041   0.00000  Uiso   1.00
C253   C     0.56888   0.13172   0.29437   0.00000  Uiso   1.00
H254   H     0.60751   0.45972   0.47628   0.00000  Uiso   1.00
H255   H     0.56834   0.63080   0.41261   0.00000  Uiso   1.00
H256   H     0.68718   0.47106   0.53221   0.00000  Uiso   1.00
H257   H     0.56408   0.28630   0.51206   0.00000  Uiso   1.00
H258   H     0.52958   0.80628   0.29784   0.00000  Uiso   1.00
H259   H     0.78016   0.46943   0.55003   0.00000  Uiso   1.00
H260   H     0.52059   0.07983   0.50754   0.00000  Uiso   1.00
H261   H     0.64339   0.35028   0.13577   0.00000  Uiso   1.00
H262   H     0.60619   0.51535   0.05341   0.00000  Uiso   1.00
H263   H     0.72503   0.35562   0.17302   0.00000  Uiso   1.00
H264   H     0.60193   0.17086   0.15287   0.00000  Uiso   1.00
H265   H     0.56030   0.71259   0.00630   0.00000  Uiso   1.00
H266   H     0.81089   0.37573   0.25850   0.00000  Uiso   1.00
H267   H     0.55131   0.98614   0.21601   0.00000  Uiso   1.00
O268   O     0.51983   0.87002   0.10404   0.00000  Uiso   1.00
O269   O     0.84858   0.42805   0.43491   0.00000  Uiso   1.00
O270   O     0.50803   0.91693   0.37917   0.00000  Uiso   1.00
N271   N     0.54191   0.76157   0.24053   0.00000  Uiso   1.00
N272   N     0.77619   0.44664   0.47630   0.00000  Uiso   1.00
N273   N     0.53352   0.08239   0.43659   0.00000  Uiso   1.00
N274   N     0.55844   0.71115   0.08365   0.00000  Uiso   1.00
N275   N     0.79272   0.39623   0.31943   0.00000  Uiso   1.00
N276   N     0.55005   0.03198   0.27972   0.00000  Uiso   1.00
C277   C     0.11573   0.56535   0.10174   0.00000  Uiso   1.00
C278   C     0.09942   0.48758   0.18355   0.00000  Uiso   1.00
C279   C     0.07650   0.39410   0.16495   0.00000  Uiso   1.00
C280   C     0.06450   0.33389   0.25020   0.00000  Uiso   1.00
C281   C     0.03759   0.20821   0.36198   0.00000  Uiso   1.00
C282   C     0.16399   0.57436   0.11857   0.00000  Uiso   1.00
C283   C     0.19536   0.55386   0.04533   0.00000  Uiso   1.00
C284   C     0.23772   0.56671   0.07589   0.00000  Uiso   1.00
C285   C     0.31105   0.57583   0.08677   0.00000  Uiso   1.00
C286   C     0.09710   0.67473   0.12952   0.00000  Uiso   1.00
C287   C     0.07225   0.73865   0.06548   0.00000  Uiso   1.00
C288   C     0.05830   0.83602   0.10524   0.00000  Uiso   1.00
C289   C     0.02779   0.00098   0.13313   0.00000  Uiso   1.00
C290   C     0.13517   0.62464   0.28622   0.00000  Uiso   1.00
C291   C     0.10998   0.51979   0.28375   0.00000  Uiso   1.00
C292   C     0.09801   0.45970   0.36905   0.00000  Uiso   1.00
C293   C     0.07508   0.36615   0.35058   0.00000  Uiso   1.00
C294   C     0.17455   0.60656   0.21877   0.00000  Uiso   1.00
C295   C     0.21687   0.61946   0.24944   0.00000  Uiso   1.00
C296   C     0.24830   0.59897   0.17627   0.00000  Uiso   1.00
C297   C     0.10766   0.70694   0.22972   0.00000  Uiso   1.00
C298   C     0.09376   0.80424   0.26959   0.00000  Uiso   1.00
C299   C     0.06888   0.86828   0.20563   0.00000  Uiso   1.00
H300   H     0.10751   0.54028   0.02372   0.00000  Uiso   1.00
H301   H     0.06834   0.36920   0.08739   0.00000  Uiso   1.00
H302   H     0.18718   0.52894   0.96779   0.00000  Uiso   1.00
H303   H     0.06408   0.71370   0.98794   0.00000  Uiso   1.00
H304   H     0.02958   0.19372   0.20216   0.00000  Uiso   1.00
H305   H     0.28016   0.53057   0.94997   0.00000  Uiso   1.00
H306   H     0.02059   0.92017   0.99246   0.00000  Uiso   1.00
H307   H     0.14339   0.64972   0.36423   0.00000  Uiso   1.00
H308   H     0.10619   0.48465   0.44659   0.00000  Uiso   1.00
H309   H     0.22503   0.64438   0.32698   0.00000  Uiso   1.00
H310   H     0.10193   0.82914   0.34713   0.00000  Uiso   1.00
H311   H     0.06030   0.28741   0.49370   0.00000  Uiso   1.00
H312   H     0.31089   0.62427   0.24150   0.00000  Uiso   1.00
H313   H     0.05131   0.01386   0.28399   0.00000  Uiso   1.00
O314   O     0.01983   0.12998   0.39596   0.00000  Uiso   1.00
O315   O     0.34858   0.57195   0.06509   0.00000  Uiso   1.00
O316   O     0.00803   0.08307   0.12083   0.00000  Uiso   1.00
N317   N     0.04191   0.23843   0.25947   0.00000  Uiso   1.00
N318   N     0.27619   0.55336   0.02370   0.00000  Uiso   1.00
N319   N     0.03352   0.91761   0.06341   0.00000  Uiso   1.00
N320   N     0.05844   0.28885   0.41635   0.00000  Uiso   1.00
N321   N     0.29272   0.60377   0.18057   0.00000  Uiso   1.00
N322   N     0.05005   0.96802   0.22028   0.00000  Uiso   1.00
C323   C     0.38427   0.93465   0.10174   0.00000  Uiso   1.00
C324   C     0.40058   0.01242   0.18355   0.00000  Uiso   1.00
C325   C     0.42350   0.10590   0.16495   0.00000  Uiso   1.00
C326   C     0.43550   0.16611   0.25020   0.00000  Uiso   1.00
C327   C     0.46241   0.29179   0.36198   0.00000  Uiso   1.00
C328   C     0.33601   0.92564   0.11857   0.00000  Uiso   1.00
C329   C     0.30464   0.94614   0.04533   0.00000  Uiso   1.00
C330   C     0.26228   0.93329   0.07589   0.00000  Uiso   1.00
C331   C     0.18895   0.92417   0.08677   0.00000  Uiso   1.00
C332   C     0.40290   0.82527   0.12952   0.00000  Uiso   1.00
C333   C     0.42775   0.76135   0.06548   0.00000  Uiso   1.00
C334   C     0.44170   0.66398   0.10524   0.00000  Uiso   1.00
C335   C     0.47221   0.49902   0.13313   0.00000  Uiso   1.00
C336   C     0.36483   0.87536   0.28622   0.00000  Uiso   1.00
C337   C     0.39002   0.98021   0.28375   0.00000  Uiso   1.00
C338   C     0.40199   0.04030   0.36905   0.00000  Uiso   1.00
C339   C     0.42492   0.13385   0.35058   0.00000  Uiso   1.00
C340   C     0.32545   0.89344   0.21877   0.00000  Uiso   1.00
C341   C     0.28313   0.88054   0.24944   0.00000  Uiso   1.00
C342   C     0.25170   0.90103   0.17627   0.00000  Uiso   1.00
C343   C     0.39234   0.79306   0.22972   0.00000  Uiso   1.00
C344   C     0.40624   0.69576   0.26959   0.00000  Uiso   1.00
C345   C     0.43112   0.63172   0.20563   0.00000  Uiso   1.00
H346   H     0.39249   0.95972   0.02372   0.00000  Uiso   1.00
H347   H     0.43166   0.13080   0.08739   0.00000  Uiso   1.00
H348   H     0.31282   0.97106   0.96779   0.00000  Uiso   1.00
H349   H     0.43592   0.78630   0.98794   0.00000  Uiso   1.00
H350   H     0.47042   0.30628   0.20216   0.00000  Uiso   1.00
H351   H     0.21984   0.96943   0.94997   0.00000  Uiso   1.00
H352   H     0.47941   0.57983   0.99246   0.00000  Uiso   1.00
H353   H     0.35661   0.85028   0.36423   0.00000  Uiso   1.00
H354   H     0.39381   0.01535   0.44659   0.00000  Uiso   1.00
H355   H     0.27497   0.85562   0.32698   0.00000  Uiso   1.00
H356   H     0.39807   0.67086   0.34713   0.00000  Uiso   1.00
H357   H     0.43970   0.21259   0.49370   0.00000  Uiso   1.00
H358   H     0.18911   0.87573   0.24150   0.00000  Uiso   1.00
H359   H     0.44869   0.48614   0.28399   0.00000  Uiso   1.00
O360   O     0.48017   0.37002   0.39596   0.00000  Uiso   1.00
O361   O     0.15142   0.92805   0.06509   0.00000  Uiso   1.00
O362   O     0.49197   0.41693   0.12083   0.00000  Uiso   1.00
N363   N     0.45809   0.26157   0.25947   0.00000  Uiso   1.00
N364   N     0.22381   0.94664   0.02370   0.00000  Uiso   1.00
N365   N     0.46648   0.58239   0.06341   0.00000  Uiso   1.00
N366   N     0.44156   0.21115   0.41635   0.00000  Uiso   1.00
N367   N     0.20728   0.89623   0.18057   0.00000  Uiso   1.00
N368   N     0.44995   0.53198   0.22028   0.00000  Uiso   1.00
