data_job_01660
_audit_creation_date              2018-12-19
_audit_creation_method            'Materials Studio'
_symmetry_space_group_name_H-M    'P1'
_symmetry_Int_Tables_number       1
_symmetry_cell_setting            triclinic
loop_
_symmetry_equiv_pos_as_xyz
  x,y,z
_cell_length_a                    29.5043
_cell_length_b                    11.3740
_cell_length_c                    13.8960
_cell_angle_alpha                 90.0000
_cell_angle_beta                  90.0000
_cell_angle_gamma                 90.0000
loop_
_atom_site_label
_atom_site_type_symbol
_atom_site_fract_x
_atom_site_fract_y
_atom_site_fract_z
_atom_site_U_iso_or_equiv
_atom_site_adp_type
_atom_site_occupancy
C1     C     0.35186   0.48013   0.04918   0.00000  Uiso   1.00
C2     C     0.38871   0.41474   0.99391   0.00000  Uiso   1.00
C3     C     0.41467   0.32258   0.02920   0.00000  Uiso   1.00
C4     C     0.44665   0.27451   0.96735   0.00000  Uiso   1.00
C5     C     0.50301   0.16652   0.89581   0.00000  Uiso   1.00
C6     C     0.36518   0.60964   0.04677   0.00000  Uiso   1.00
C7     C     0.37136   0.68135   0.12651   0.00000  Uiso   1.00
C8     C     0.38353   0.79735   0.10916   0.00000  Uiso   1.00
C9     C     0.40333   0.99196   0.11969   0.00000  Uiso   1.00
C10    C     0.30895   0.46983   0.98858   0.00000  Uiso   1.00
C11    C     0.26784   0.42403   0.01938   0.00000  Uiso   1.00
C12    C     0.23266   0.42235   0.95304   0.00000  Uiso   1.00
C13    C     0.16516   0.39990   0.87321   0.00000  Uiso   1.00
C14    C     0.36247   0.55864   0.87658   0.00000  Uiso   1.00
C15    C     0.39448   0.45739   0.90016   0.00000  Uiso   1.00
C16    C     0.42642   0.40944   0.83824   0.00000  Uiso   1.00
C17    C     0.45242   0.31722   0.87343   0.00000  Uiso   1.00
C18    C     0.37095   0.65228   0.95303   0.00000  Uiso   1.00
C19    C     0.38311   0.76821   0.93556   0.00000  Uiso   1.00
C20    C     0.38930   0.84007   0.01524   0.00000  Uiso   1.00
C21    C     0.31472   0.51247   0.89483   0.00000  Uiso   1.00
C22    C     0.27959   0.51088   0.82843   0.00000  Uiso   1.00
C23    C     0.23844   0.46507   0.85912   0.00000  Uiso   1.00
H24    H     0.34736   0.44694   0.12216   0.00000  Uiso   1.00
H25    H     0.41020   0.28961   0.10175   0.00000  Uiso   1.00
H26    H     0.36689   0.64832   0.19905   0.00000  Uiso   1.00
H27    H     0.26339   0.39103   0.09193   0.00000  Uiso   1.00
H28    H     0.48242   0.13401   0.03780   0.00000  Uiso   1.00
H29    H     0.39108   0.89039   0.24295   0.00000  Uiso   1.00
H30    H     0.17283   0.34785   0.01708   0.00000  Uiso   1.00
H31    H     0.36697   0.59185   0.80360   0.00000  Uiso   1.00
H32    H     0.43088   0.44246   0.76570   0.00000  Uiso   1.00
H33    H     0.38757   0.80118   0.86300   0.00000  Uiso   1.00
H34    H     0.28407   0.54389   0.75589   0.00000  Uiso   1.00
H35    H     0.49920   0.25807   0.76505   0.00000  Uiso   1.00
H36    H     0.40786   0.01446   0.97020   0.00000  Uiso   1.00
H37    H     0.18961   0.47191   0.74433   0.00000  Uiso   1.00
O38    O     0.53251   0.09519   0.88225   0.00000  Uiso   1.00
O39    O     0.41267   0.08753   0.15140   0.00000  Uiso   1.00
O40    O     0.12633   0.37572   0.85507   0.00000  Uiso   1.00
N41    N     0.47759   0.18370   0.97880   0.00000  Uiso   1.00
N42    N     0.39220   0.89086   0.17060   0.00000  Uiso   1.00
N43    N     0.18815   0.38366   0.95944   0.00000  Uiso   1.00
N44    N     0.48662   0.25045   0.83203   0.00000  Uiso   1.00
N45    N     0.40124   0.95762   0.02384   0.00000  Uiso   1.00
N46    N     0.19718   0.45042   0.81268   0.00000  Uiso   1.00
C47    C     0.85186   0.98013   0.04918   0.00000  Uiso   1.00
C48    C     0.88871   0.91474   0.99391   0.00000  Uiso   1.00
C49    C     0.91467   0.82258   0.02920   0.00000  Uiso   1.00
C50    C     0.94665   0.77451   0.96735   0.00000  Uiso   1.00
C51    C     0.00301   0.66652   0.89581   0.00000  Uiso   1.00
C52    C     0.86518   0.10964   0.04677   0.00000  Uiso   1.00
C53    C     0.87136   0.18135   0.12651   0.00000  Uiso   1.00
C54    C     0.88353   0.29735   0.10916   0.00000  Uiso   1.00
C55    C     0.90333   0.49196   0.11969   0.00000  Uiso   1.00
C56    C     0.80895   0.96983   0.98858   0.00000  Uiso   1.00
C57    C     0.76784   0.92403   0.01938   0.00000  Uiso   1.00
C58    C     0.73266   0.92235   0.95304   0.00000  Uiso   1.00
C59    C     0.66516   0.89990   0.87321   0.00000  Uiso   1.00
C60    C     0.86247   0.05864   0.87658   0.00000  Uiso   1.00
C61    C     0.89448   0.95739   0.90016   0.00000  Uiso   1.00
C62    C     0.92642   0.90944   0.83824   0.00000  Uiso   1.00
C63    C     0.95242   0.81722   0.87343   0.00000  Uiso   1.00
C64    C     0.87095   0.15228   0.95303   0.00000  Uiso   1.00
C65    C     0.88311   0.26821   0.93556   0.00000  Uiso   1.00
C66    C     0.88930   0.34007   0.01524   0.00000  Uiso   1.00
C67    C     0.81472   0.01247   0.89483   0.00000  Uiso   1.00
C68    C     0.77959   0.01088   0.82843   0.00000  Uiso   1.00
C69    C     0.73844   0.96507   0.85912   0.00000  Uiso   1.00
H70    H     0.84736   0.94694   0.12216   0.00000  Uiso   1.00
H71    H     0.91020   0.78961   0.10175   0.00000  Uiso   1.00
H72    H     0.86689   0.14832   0.19905   0.00000  Uiso   1.00
H73    H     0.76339   0.89103   0.09193   0.00000  Uiso   1.00
H74    H     0.98242   0.63401   0.03780   0.00000  Uiso   1.00
H75    H     0.89108   0.39039   0.24295   0.00000  Uiso   1.00
H76    H     0.67283   0.84785   0.01708   0.00000  Uiso   1.00
H77    H     0.86697   0.09185   0.80360   0.00000  Uiso   1.00
H78    H     0.93088   0.94246   0.76570   0.00000  Uiso   1.00
H79    H     0.88757   0.30118   0.86300   0.00000  Uiso   1.00
H80    H     0.78407   0.04389   0.75589   0.00000  Uiso   1.00
H81    H     0.99920   0.75807   0.76505   0.00000  Uiso   1.00
H82    H     0.90786   0.51446   0.97020   0.00000  Uiso   1.00
H83    H     0.68961   0.97191   0.74433   0.00000  Uiso   1.00
O84    O     0.03251   0.59519   0.88225   0.00000  Uiso   1.00
O85    O     0.91267   0.58753   0.15140   0.00000  Uiso   1.00
O86    O     0.62633   0.87572   0.85507   0.00000  Uiso   1.00
N87    N     0.97759   0.68370   0.97880   0.00000  Uiso   1.00
N88    N     0.89220   0.39086   0.17060   0.00000  Uiso   1.00
N89    N     0.68815   0.88366   0.95944   0.00000  Uiso   1.00
N90    N     0.98662   0.75045   0.83203   0.00000  Uiso   1.00
N91    N     0.90124   0.45762   0.02384   0.00000  Uiso   1.00
N92    N     0.69718   0.95042   0.81268   0.00000  Uiso   1.00
C93    C     0.64814   0.51987   0.04918   0.00000  Uiso   1.00
C94    C     0.61129   0.58526   0.99391   0.00000  Uiso   1.00
C95    C     0.58533   0.67742   0.02920   0.00000  Uiso   1.00
C96    C     0.55335   0.72549   0.96735   0.00000  Uiso   1.00
C97    C     0.49699   0.83348   0.89581   0.00000  Uiso   1.00
C98    C     0.63482   0.39036   0.04677   0.00000  Uiso   1.00
C99    C     0.62864   0.31865   0.12651   0.00000  Uiso   1.00
C100   C     0.61647   0.20265   0.10916   0.00000  Uiso   1.00
C101   C     0.59667   0.00804   0.11969   0.00000  Uiso   1.00
C102   C     0.69105   0.53017   0.98858   0.00000  Uiso   1.00
C103   C     0.73216   0.57597   0.01938   0.00000  Uiso   1.00
C104   C     0.76734   0.57765   0.95304   0.00000  Uiso   1.00
C105   C     0.83484   0.60010   0.87321   0.00000  Uiso   1.00
C106   C     0.63753   0.44136   0.87658   0.00000  Uiso   1.00
C107   C     0.60552   0.54261   0.90016   0.00000  Uiso   1.00
C108   C     0.57358   0.59056   0.83824   0.00000  Uiso   1.00
C109   C     0.54758   0.68278   0.87343   0.00000  Uiso   1.00
C110   C     0.62905   0.34772   0.95303   0.00000  Uiso   1.00
C111   C     0.61689   0.23179   0.93556   0.00000  Uiso   1.00
C112   C     0.61070   0.15993   0.01524   0.00000  Uiso   1.00
C113   C     0.68528   0.48753   0.89483   0.00000  Uiso   1.00
C114   C     0.72041   0.48912   0.82843   0.00000  Uiso   1.00
C115   C     0.76156   0.53493   0.85912   0.00000  Uiso   1.00
H116   H     0.65264   0.55306   0.12216   0.00000  Uiso   1.00
H117   H     0.58980   0.71039   0.10175   0.00000  Uiso   1.00
H118   H     0.63311   0.35168   0.19905   0.00000  Uiso   1.00
H119   H     0.73661   0.60897   0.09193   0.00000  Uiso   1.00
H120   H     0.51758   0.86599   0.03780   0.00000  Uiso   1.00
H121   H     0.60892   0.10961   0.24295   0.00000  Uiso   1.00
H122   H     0.82717   0.65215   0.01708   0.00000  Uiso   1.00
H123   H     0.63303   0.40815   0.80360   0.00000  Uiso   1.00
H124   H     0.56912   0.55754   0.76570   0.00000  Uiso   1.00
H125   H     0.61243   0.19882   0.86300   0.00000  Uiso   1.00
H126   H     0.71593   0.45611   0.75589   0.00000  Uiso   1.00
H127   H     0.50080   0.74193   0.76505   0.00000  Uiso   1.00
H128   H     0.59214   0.98554   0.97020   0.00000  Uiso   1.00
H129   H     0.81039   0.52809   0.74433   0.00000  Uiso   1.00
O130   O     0.46749   0.90481   0.88225   0.00000  Uiso   1.00
O131   O     0.58733   0.91247   0.15140   0.00000  Uiso   1.00
O132   O     0.87367   0.62428   0.85507   0.00000  Uiso   1.00
N133   N     0.52241   0.81630   0.97880   0.00000  Uiso   1.00
N134   N     0.60780   0.10914   0.17060   0.00000  Uiso   1.00
N135   N     0.81185   0.61634   0.95944   0.00000  Uiso   1.00
N136   N     0.51338   0.74955   0.83203   0.00000  Uiso   1.00
N137   N     0.59876   0.04238   0.02384   0.00000  Uiso   1.00
N138   N     0.80282   0.54958   0.81268   0.00000  Uiso   1.00
C139   C     0.14814   0.01987   0.04918   0.00000  Uiso   1.00
C140   C     0.11129   0.08526   0.99391   0.00000  Uiso   1.00
C141   C     0.08533   0.17742   0.02920   0.00000  Uiso   1.00
C142   C     0.05335   0.22549   0.96735   0.00000  Uiso   1.00
C143   C     0.99699   0.33348   0.89581   0.00000  Uiso   1.00
C144   C     0.13482   0.89036   0.04677   0.00000  Uiso   1.00
C145   C     0.12864   0.81865   0.12651   0.00000  Uiso   1.00
C146   C     0.11647   0.70265   0.10916   0.00000  Uiso   1.00
C147   C     0.09667   0.50804   0.11969   0.00000  Uiso   1.00
C148   C     0.19105   0.03017   0.98858   0.00000  Uiso   1.00
C149   C     0.23216   0.07597   0.01938   0.00000  Uiso   1.00
C150   C     0.26734   0.07765   0.95304   0.00000  Uiso   1.00
C151   C     0.33484   0.10010   0.87321   0.00000  Uiso   1.00
C152   C     0.13753   0.94136   0.87658   0.00000  Uiso   1.00
C153   C     0.10552   0.04261   0.90016   0.00000  Uiso   1.00
C154   C     0.07358   0.09056   0.83824   0.00000  Uiso   1.00
C155   C     0.04758   0.18278   0.87343   0.00000  Uiso   1.00
C156   C     0.12905   0.84772   0.95303   0.00000  Uiso   1.00
C157   C     0.11689   0.73179   0.93556   0.00000  Uiso   1.00
C158   C     0.11070   0.65993   0.01524   0.00000  Uiso   1.00
C159   C     0.18528   0.98753   0.89483   0.00000  Uiso   1.00
C160   C     0.22041   0.98912   0.82843   0.00000  Uiso   1.00
C161   C     0.26156   0.03493   0.85912   0.00000  Uiso   1.00
H162   H     0.15264   0.05306   0.12216   0.00000  Uiso   1.00
H163   H     0.08980   0.21039   0.10175   0.00000  Uiso   1.00
H164   H     0.13311   0.85168   0.19905   0.00000  Uiso   1.00
H165   H     0.23661   0.10897   0.09193   0.00000  Uiso   1.00
H166   H     0.01758   0.36599   0.03780   0.00000  Uiso   1.00
H167   H     0.10892   0.60961   0.24295   0.00000  Uiso   1.00
H168   H     0.32717   0.15215   0.01708   0.00000  Uiso   1.00
H169   H     0.13303   0.90815   0.80360   0.00000  Uiso   1.00
H170   H     0.06912   0.05754   0.76570   0.00000  Uiso   1.00
H171   H     0.11243   0.69882   0.86300   0.00000  Uiso   1.00
H172   H     0.21593   0.95611   0.75589   0.00000  Uiso   1.00
H173   H     0.00080   0.24193   0.76505   0.00000  Uiso   1.00
H174   H     0.09214   0.48554   0.97020   0.00000  Uiso   1.00
H175   H     0.31039   0.02809   0.74433   0.00000  Uiso   1.00
O176   O     0.96749   0.40481   0.88225   0.00000  Uiso   1.00
O177   O     0.08733   0.41247   0.15140   0.00000  Uiso   1.00
O178   O     0.37367   0.12428   0.85507   0.00000  Uiso   1.00
N179   N     0.02241   0.31630   0.97880   0.00000  Uiso   1.00
N180   N     0.10780   0.60914   0.17060   0.00000  Uiso   1.00
N181   N     0.31185   0.11634   0.95944   0.00000  Uiso   1.00
N182   N     0.01338   0.24955   0.83203   0.00000  Uiso   1.00
N183   N     0.09876   0.54238   0.02384   0.00000  Uiso   1.00
N184   N     0.30282   0.04958   0.81268   0.00000  Uiso   1.00
C185   C     0.35186   0.51987   0.54918   0.00000  Uiso   1.00
C186   C     0.38871   0.58526   0.49391   0.00000  Uiso   1.00
C187   C     0.41467   0.67742   0.52920   0.00000  Uiso   1.00
C188   C     0.44665   0.72549   0.46735   0.00000  Uiso   1.00
C189   C     0.50301   0.83348   0.39581   0.00000  Uiso   1.00
C190   C     0.36518   0.39036   0.54677   0.00000  Uiso   1.00
C191   C     0.37136   0.31865   0.62651   0.00000  Uiso   1.00
C192   C     0.38353   0.20265   0.60916   0.00000  Uiso   1.00
C193   C     0.40333   0.00804   0.61969   0.00000  Uiso   1.00
C194   C     0.30895   0.53017   0.48858   0.00000  Uiso   1.00
C195   C     0.26784   0.57597   0.51938   0.00000  Uiso   1.00
C196   C     0.23266   0.57765   0.45304   0.00000  Uiso   1.00
C197   C     0.16516   0.60010   0.37321   0.00000  Uiso   1.00
C198   C     0.36247   0.44136   0.37658   0.00000  Uiso   1.00
C199   C     0.39448   0.54261   0.40016   0.00000  Uiso   1.00
C200   C     0.42642   0.59056   0.33824   0.00000  Uiso   1.00
C201   C     0.45242   0.68278   0.37343   0.00000  Uiso   1.00
C202   C     0.37095   0.34772   0.45303   0.00000  Uiso   1.00
C203   C     0.38311   0.23179   0.43556   0.00000  Uiso   1.00
C204   C     0.38930   0.15993   0.51524   0.00000  Uiso   1.00
C205   C     0.31472   0.48753   0.39483   0.00000  Uiso   1.00
C206   C     0.27959   0.48912   0.32843   0.00000  Uiso   1.00
C207   C     0.23844   0.53493   0.35912   0.00000  Uiso   1.00
H208   H     0.34736   0.55306   0.62216   0.00000  Uiso   1.00
H209   H     0.41020   0.71039   0.60175   0.00000  Uiso   1.00
H210   H     0.36689   0.35168   0.69905   0.00000  Uiso   1.00
H211   H     0.26339   0.60897   0.59193   0.00000  Uiso   1.00
H212   H     0.48242   0.86599   0.53780   0.00000  Uiso   1.00
H213   H     0.39108   0.10961   0.74295   0.00000  Uiso   1.00
H214   H     0.17283   0.65215   0.51708   0.00000  Uiso   1.00
H215   H     0.36697   0.40815   0.30360   0.00000  Uiso   1.00
H216   H     0.43088   0.55754   0.26570   0.00000  Uiso   1.00
H217   H     0.38757   0.19882   0.36300   0.00000  Uiso   1.00
H218   H     0.28407   0.45611   0.25589   0.00000  Uiso   1.00
H219   H     0.49920   0.74193   0.26505   0.00000  Uiso   1.00
H220   H     0.40786   0.98554   0.47020   0.00000  Uiso   1.00
H221   H     0.18961   0.52809   0.24433   0.00000  Uiso   1.00
O222   O     0.53251   0.90481   0.38225   0.00000  Uiso   1.00
O223   O     0.41267   0.91247   0.65140   0.00000  Uiso   1.00
O224   O     0.12633   0.62428   0.35507   0.00000  Uiso   1.00
N225   N     0.47759   0.81630   0.47880   0.00000  Uiso   1.00
N226   N     0.39220   0.10914   0.67060   0.00000  Uiso   1.00
N227   N     0.18815   0.61634   0.45944   0.00000  Uiso   1.00
N228   N     0.48662   0.74955   0.33203   0.00000  Uiso   1.00
N229   N     0.40124   0.04238   0.52384   0.00000  Uiso   1.00
N230   N     0.19718   0.54958   0.31268   0.00000  Uiso   1.00
C231   C     0.85186   0.01987   0.54918   0.00000  Uiso   1.00
C232   C     0.88871   0.08526   0.49391   0.00000  Uiso   1.00
C233   C     0.91467   0.17742   0.52920   0.00000  Uiso   1.00
C234   C     0.94665   0.22549   0.46735   0.00000  Uiso   1.00
C235   C     0.00301   0.33348   0.39581   0.00000  Uiso   1.00
C236   C     0.86518   0.89036   0.54677   0.00000  Uiso   1.00
C237   C     0.87136   0.81865   0.62651   0.00000  Uiso   1.00
C238   C     0.88353   0.70265   0.60916   0.00000  Uiso   1.00
C239   C     0.90333   0.50804   0.61969   0.00000  Uiso   1.00
C240   C     0.80895   0.03017   0.48858   0.00000  Uiso   1.00
C241   C     0.76784   0.07597   0.51938   0.00000  Uiso   1.00
C242   C     0.73266   0.07765   0.45304   0.00000  Uiso   1.00
C243   C     0.66516   0.10010   0.37321   0.00000  Uiso   1.00
C244   C     0.86247   0.94136   0.37658   0.00000  Uiso   1.00
C245   C     0.89448   0.04261   0.40016   0.00000  Uiso   1.00
C246   C     0.92642   0.09056   0.33824   0.00000  Uiso   1.00
C247   C     0.95242   0.18278   0.37343   0.00000  Uiso   1.00
C248   C     0.87095   0.84772   0.45303   0.00000  Uiso   1.00
C249   C     0.88311   0.73179   0.43556   0.00000  Uiso   1.00
C250   C     0.88930   0.65993   0.51524   0.00000  Uiso   1.00
C251   C     0.81472   0.98753   0.39483   0.00000  Uiso   1.00
C252   C     0.77959   0.98912   0.32843   0.00000  Uiso   1.00
C253   C     0.73844   0.03493   0.35912   0.00000  Uiso   1.00
H254   H     0.84736   0.05306   0.62216   0.00000  Uiso   1.00
H255   H     0.91020   0.21039   0.60175   0.00000  Uiso   1.00
H256   H     0.86689   0.85168   0.69905   0.00000  Uiso   1.00
H257   H     0.76339   0.10897   0.59193   0.00000  Uiso   1.00
H258   H     0.98242   0.36599   0.53780   0.00000  Uiso   1.00
H259   H     0.89108   0.60961   0.74295   0.00000  Uiso   1.00
H260   H     0.67283   0.15215   0.51708   0.00000  Uiso   1.00
H261   H     0.86697   0.90815   0.30360   0.00000  Uiso   1.00
H262   H     0.93088   0.05754   0.26570   0.00000  Uiso   1.00
H263   H     0.88757   0.69882   0.36300   0.00000  Uiso   1.00
H264   H     0.78407   0.95611   0.25589   0.00000  Uiso   1.00
H265   H     0.99920   0.24193   0.26505   0.00000  Uiso   1.00
H266   H     0.90786   0.48554   0.47020   0.00000  Uiso   1.00
H267   H     0.68961   0.02809   0.24433   0.00000  Uiso   1.00
O268   O     0.03251   0.40481   0.38225   0.00000  Uiso   1.00
O269   O     0.91267   0.41247   0.65140   0.00000  Uiso   1.00
O270   O     0.62633   0.12428   0.35507   0.00000  Uiso   1.00
N271   N     0.97759   0.31630   0.47880   0.00000  Uiso   1.00
N272   N     0.89220   0.60914   0.67060   0.00000  Uiso   1.00
N273   N     0.68815   0.11634   0.45944   0.00000  Uiso   1.00
N274   N     0.98662   0.24955   0.33203   0.00000  Uiso   1.00
N275   N     0.90124   0.54238   0.52384   0.00000  Uiso   1.00
N276   N     0.69718   0.04958   0.31268   0.00000  Uiso   1.00
C277   C     0.64814   0.48013   0.54918   0.00000  Uiso   1.00
C278   C     0.61129   0.41474   0.49391   0.00000  Uiso   1.00
C279   C     0.58533   0.32258   0.52920   0.00000  Uiso   1.00
C280   C     0.55335   0.27451   0.46735   0.00000  Uiso   1.00
C281   C     0.49699   0.16652   0.39581   0.00000  Uiso   1.00
C282   C     0.63482   0.60964   0.54677   0.00000  Uiso   1.00
C283   C     0.62864   0.68135   0.62651   0.00000  Uiso   1.00
C284   C     0.61647   0.79735   0.60916   0.00000  Uiso   1.00
C285   C     0.59667   0.99196   0.61969   0.00000  Uiso   1.00
C286   C     0.69105   0.46983   0.48858   0.00000  Uiso   1.00
C287   C     0.73216   0.42403   0.51938   0.00000  Uiso   1.00
C288   C     0.76734   0.42235   0.45304   0.00000  Uiso   1.00
C289   C     0.83484   0.39990   0.37321   0.00000  Uiso   1.00
C290   C     0.63753   0.55864   0.37658   0.00000  Uiso   1.00
C291   C     0.60552   0.45739   0.40016   0.00000  Uiso   1.00
C292   C     0.57358   0.40944   0.33824   0.00000  Uiso   1.00
C293   C     0.54758   0.31722   0.37343   0.00000  Uiso   1.00
C294   C     0.62905   0.65228   0.45303   0.00000  Uiso   1.00
C295   C     0.61689   0.76821   0.43556   0.00000  Uiso   1.00
C296   C     0.61070   0.84007   0.51524   0.00000  Uiso   1.00
C297   C     0.68528   0.51247   0.39483   0.00000  Uiso   1.00
C298   C     0.72041   0.51088   0.32843   0.00000  Uiso   1.00
C299   C     0.76156   0.46507   0.35912   0.00000  Uiso   1.00
H300   H     0.65264   0.44694   0.62216   0.00000  Uiso   1.00
H301   H     0.58980   0.28961   0.60175   0.00000  Uiso   1.00
H302   H     0.63311   0.64832   0.69905   0.00000  Uiso   1.00
H303   H     0.73661   0.39103   0.59193   0.00000  Uiso   1.00
H304   H     0.51758   0.13401   0.53780   0.00000  Uiso   1.00
H305   H     0.60892   0.89039   0.74295   0.00000  Uiso   1.00
H306   H     0.82717   0.34785   0.51708   0.00000  Uiso   1.00
H307   H     0.63303   0.59185   0.30360   0.00000  Uiso   1.00
H308   H     0.56912   0.44246   0.26570   0.00000  Uiso   1.00
H309   H     0.61243   0.80118   0.36300   0.00000  Uiso   1.00
H310   H     0.71593   0.54389   0.25589   0.00000  Uiso   1.00
H311   H     0.50080   0.25807   0.26505   0.00000  Uiso   1.00
H312   H     0.59214   0.01446   0.47020   0.00000  Uiso   1.00
H313   H     0.81039   0.47191   0.24433   0.00000  Uiso   1.00
O314   O     0.46749   0.09519   0.38225   0.00000  Uiso   1.00
O315   O     0.58733   0.08753   0.65140   0.00000  Uiso   1.00
O316   O     0.87367   0.37572   0.35507   0.00000  Uiso   1.00
N317   N     0.52241   0.18370   0.47880   0.00000  Uiso   1.00
N318   N     0.60780   0.89086   0.67060   0.00000  Uiso   1.00
N319   N     0.81185   0.38366   0.45944   0.00000  Uiso   1.00
N320   N     0.51338   0.25045   0.33203   0.00000  Uiso   1.00
N321   N     0.59876   0.95762   0.52384   0.00000  Uiso   1.00
N322   N     0.80282   0.45042   0.31268   0.00000  Uiso   1.00
C323   C     0.14814   0.98013   0.54918   0.00000  Uiso   1.00
C324   C     0.11129   0.91474   0.49391   0.00000  Uiso   1.00
C325   C     0.08533   0.82258   0.52920   0.00000  Uiso   1.00
C326   C     0.05335   0.77451   0.46735   0.00000  Uiso   1.00
C327   C     0.99699   0.66652   0.39581   0.00000  Uiso   1.00
C328   C     0.13482   0.10964   0.54677   0.00000  Uiso   1.00
C329   C     0.12864   0.18135   0.62651   0.00000  Uiso   1.00
C330   C     0.11647   0.29735   0.60916   0.00000  Uiso   1.00
C331   C     0.09667   0.49196   0.61969   0.00000  Uiso   1.00
C332   C     0.19105   0.96983   0.48858   0.00000  Uiso   1.00
C333   C     0.23216   0.92403   0.51938   0.00000  Uiso   1.00
C334   C     0.26734   0.92235   0.45304   0.00000  Uiso   1.00
C335   C     0.33484   0.89990   0.37321   0.00000  Uiso   1.00
C336   C     0.13753   0.05864   0.37658   0.00000  Uiso   1.00
C337   C     0.10552   0.95739   0.40016   0.00000  Uiso   1.00
C338   C     0.07358   0.90944   0.33824   0.00000  Uiso   1.00
C339   C     0.04758   0.81722   0.37343   0.00000  Uiso   1.00
C340   C     0.12905   0.15228   0.45303   0.00000  Uiso   1.00
C341   C     0.11689   0.26821   0.43556   0.00000  Uiso   1.00
C342   C     0.11070   0.34007   0.51524   0.00000  Uiso   1.00
C343   C     0.18528   0.01247   0.39483   0.00000  Uiso   1.00
C344   C     0.22041   0.01088   0.32843   0.00000  Uiso   1.00
C345   C     0.26156   0.96507   0.35912   0.00000  Uiso   1.00
H346   H     0.15264   0.94694   0.62216   0.00000  Uiso   1.00
H347   H     0.08980   0.78961   0.60175   0.00000  Uiso   1.00
H348   H     0.13311   0.14832   0.69905   0.00000  Uiso   1.00
H349   H     0.23661   0.89103   0.59193   0.00000  Uiso   1.00
H350   H     0.01758   0.63401   0.53780   0.00000  Uiso   1.00
H351   H     0.10892   0.39039   0.74295   0.00000  Uiso   1.00
H352   H     0.32717   0.84785   0.51708   0.00000  Uiso   1.00
H353   H     0.13303   0.09185   0.30360   0.00000  Uiso   1.00
H354   H     0.06912   0.94246   0.26570   0.00000  Uiso   1.00
H355   H     0.11243   0.30118   0.36300   0.00000  Uiso   1.00
H356   H     0.21593   0.04389   0.25589   0.00000  Uiso   1.00
H357   H     0.00080   0.75807   0.26505   0.00000  Uiso   1.00
H358   H     0.09214   0.51446   0.47020   0.00000  Uiso   1.00
H359   H     0.31039   0.97191   0.24433   0.00000  Uiso   1.00
O360   O     0.96749   0.59519   0.38225   0.00000  Uiso   1.00
O361   O     0.08733   0.58753   0.65140   0.00000  Uiso   1.00
O362   O     0.37367   0.87572   0.35507   0.00000  Uiso   1.00
N363   N     0.02241   0.68370   0.47880   0.00000  Uiso   1.00
N364   N     0.10780   0.39086   0.67060   0.00000  Uiso   1.00
N365   N     0.31185   0.88366   0.45944   0.00000  Uiso   1.00
N366   N     0.01338   0.75045   0.33203   0.00000  Uiso   1.00
N367   N     0.09876   0.45762   0.52384   0.00000  Uiso   1.00
N368   N     0.30282   0.95042   0.31268   0.00000  Uiso   1.00
