data_job_00988
_audit_creation_date              2018-12-19
_audit_creation_method            'Materials Studio'
_symmetry_space_group_name_H-M    'P1'
_symmetry_Int_Tables_number       1
_symmetry_cell_setting            triclinic
loop_
_symmetry_equiv_pos_as_xyz
  x,y,z
_cell_length_a                    11.3541
_cell_length_b                    11.9103
_cell_length_c                    17.8434
_cell_angle_alpha                 90.0000
_cell_angle_beta                  108.9980
_cell_angle_gamma                 90.0000
loop_
_atom_site_label
_atom_site_type_symbol
_atom_site_fract_x
_atom_site_fract_y
_atom_site_fract_z
_atom_site_U_iso_or_equiv
_atom_site_adp_type
_atom_site_occupancy
C1     C     0.45795   0.35562   0.73093   0.00000  Uiso   1.00
C2     C     0.35164   0.31338   0.75809   0.00000  Uiso   1.00
C3     C     0.32011   0.20171   0.76309   0.00000  Uiso   1.00
C4     C     0.21975   0.18044   0.78928   0.00000  Uiso   1.00
C5     C     0.06473   0.10158   0.82830   0.00000  Uiso   1.00
C6     C     0.39899   0.43551   0.66214   0.00000  Uiso   1.00
C7     C     0.40729   0.42652   0.58647   0.00000  Uiso   1.00
C8     C     0.34681   0.50806   0.53189   0.00000  Uiso   1.00
C9     C     0.26540   0.61885   0.42196   0.00000  Uiso   1.00
C10    C     0.53949   0.42815   0.79835   0.00000  Uiso   1.00
C11    C     0.66592   0.41300   0.83719   0.00000  Uiso   1.00
C12    C     0.72374   0.48836   0.89728   0.00000  Uiso   1.00
C13    C     0.86045   0.58771   0.99884   0.00000  Uiso   1.00
C14    C     0.33579   0.51641   0.76855   0.00000  Uiso   1.00
C15    C     0.28529   0.40072   0.77852   0.00000  Uiso   1.00
C16    C     0.18496   0.37961   0.80471   0.00000  Uiso   1.00
C17    C     0.15328   0.26793   0.80975   0.00000  Uiso   1.00
C18    C     0.33265   0.52284   0.68257   0.00000  Uiso   1.00
C19    C     0.27215   0.60442   0.62809   0.00000  Uiso   1.00
C20    C     0.28034   0.59556   0.55236   0.00000  Uiso   1.00
C21    C     0.47314   0.51548   0.81878   0.00000  Uiso   1.00
C22    C     0.53077   0.59089   0.87882   0.00000  Uiso   1.00
C23    C     0.65727   0.57585   0.91775   0.00000  Uiso   1.00
H24    H     0.50960   0.28763   0.71502   0.00000  Uiso   1.00
H25    H     0.37147   0.13415   0.74727   0.00000  Uiso   1.00
H26    H     0.45865   0.35894   0.57068   0.00000  Uiso   1.00
H27    H     0.71724   0.34540   0.82137   0.00000  Uiso   1.00
H28    H     0.18904   0.00251   0.79200   0.00000  Uiso   1.00
H29    H     0.37291   0.47650   0.41966   0.00000  Uiso   1.00
H30    H     0.91819   0.44797   0.94828   0.00000  Uiso   1.00
H31    H     0.28414   0.58440   0.78446   0.00000  Uiso   1.00
H32    H     0.13363   0.44721   0.82052   0.00000  Uiso   1.00
H33    H     0.22082   0.67199   0.64392   0.00000  Uiso   1.00
H34    H     0.47940   0.65846   0.89461   0.00000  Uiso   1.00
H35    H     0.99599   0.25660   0.85144   0.00000  Uiso   1.00
H36    H     0.17987   0.73059   0.47910   0.00000  Uiso   1.00
H37    H     0.72514   0.70206   0.00773   0.00000  Uiso   1.00
O38    O     0.99755   0.03395   0.84416   0.00000  Uiso   1.00
O39    O     0.23881   0.65582   0.35567   0.00000  Uiso   1.00
O40    O     0.95419   0.61838   0.04922   0.00000  Uiso   1.00
N41    N     0.16427   0.08114   0.80106   0.00000  Uiso   1.00
N42    N     0.33617   0.52428   0.45293   0.00000  Uiso   1.00
N43    N     0.84596   0.49762   0.94714   0.00000  Uiso   1.00
N44    N     0.06040   0.21786   0.83304   0.00000  Uiso   1.00
N45    N     0.23229   0.66100   0.48492   0.00000  Uiso   1.00
N46    N     0.74209   0.63435   0.97913   0.00000  Uiso   1.00
C47    C     0.54205   0.85562   0.76907   0.00000  Uiso   1.00
C48    C     0.64836   0.81338   0.74191   0.00000  Uiso   1.00
C49    C     0.67989   0.70171   0.73691   0.00000  Uiso   1.00
C50    C     0.78025   0.68044   0.71072   0.00000  Uiso   1.00
C51    C     0.93527   0.60158   0.67170   0.00000  Uiso   1.00
C52    C     0.60101   0.93551   0.83786   0.00000  Uiso   1.00
C53    C     0.59271   0.92652   0.91353   0.00000  Uiso   1.00
C54    C     0.65319   0.00806   0.96811   0.00000  Uiso   1.00
C55    C     0.73460   0.11885   0.07804   0.00000  Uiso   1.00
C56    C     0.46051   0.92815   0.70165   0.00000  Uiso   1.00
C57    C     0.33408   0.91300   0.66281   0.00000  Uiso   1.00
C58    C     0.27626   0.98836   0.60272   0.00000  Uiso   1.00
C59    C     0.13955   0.08771   0.50116   0.00000  Uiso   1.00
C60    C     0.66421   0.01641   0.73145   0.00000  Uiso   1.00
C61    C     0.71471   0.90072   0.72148   0.00000  Uiso   1.00
C62    C     0.81504   0.87961   0.69529   0.00000  Uiso   1.00
C63    C     0.84672   0.76793   0.69025   0.00000  Uiso   1.00
C64    C     0.66735   0.02284   0.81743   0.00000  Uiso   1.00
C65    C     0.72785   0.10442   0.87191   0.00000  Uiso   1.00
C66    C     0.71966   0.09556   0.94764   0.00000  Uiso   1.00
C67    C     0.52686   0.01548   0.68122   0.00000  Uiso   1.00
C68    C     0.46923   0.09089   0.62118   0.00000  Uiso   1.00
C69    C     0.34273   0.07585   0.58225   0.00000  Uiso   1.00
H70    H     0.49040   0.78763   0.78498   0.00000  Uiso   1.00
H71    H     0.62853   0.63415   0.75273   0.00000  Uiso   1.00
H72    H     0.54135   0.85894   0.92932   0.00000  Uiso   1.00
H73    H     0.28276   0.84540   0.67863   0.00000  Uiso   1.00
H74    H     0.81096   0.50251   0.70800   0.00000  Uiso   1.00
H75    H     0.62709   0.97650   0.08034   0.00000  Uiso   1.00
H76    H     0.08181   0.94797   0.55172   0.00000  Uiso   1.00
H77    H     0.71586   0.08440   0.71554   0.00000  Uiso   1.00
H78    H     0.86637   0.94721   0.67948   0.00000  Uiso   1.00
H79    H     0.77918   0.17199   0.85608   0.00000  Uiso   1.00
H80    H     0.52060   0.15846   0.60539   0.00000  Uiso   1.00
H81    H     0.00401   0.75660   0.64856   0.00000  Uiso   1.00
H82    H     0.82013   0.23059   0.02090   0.00000  Uiso   1.00
H83    H     0.27486   0.20206   0.49227   0.00000  Uiso   1.00
O84    O     0.00245   0.53395   0.65584   0.00000  Uiso   1.00
O85    O     0.76119   0.15582   0.14433   0.00000  Uiso   1.00
O86    O     0.04581   0.11838   0.45078   0.00000  Uiso   1.00
N87    N     0.83573   0.58114   0.69894   0.00000  Uiso   1.00
N88    N     0.66383   0.02428   0.04707   0.00000  Uiso   1.00
N89    N     0.15404   0.99762   0.55286   0.00000  Uiso   1.00
N90    N     0.93960   0.71786   0.66696   0.00000  Uiso   1.00
N91    N     0.76771   0.16100   0.01508   0.00000  Uiso   1.00
N92    N     0.25791   0.13435   0.52087   0.00000  Uiso   1.00
C93    C     0.54205   0.64438   0.26907   0.00000  Uiso   1.00
C94    C     0.64836   0.68662   0.24191   0.00000  Uiso   1.00
C95    C     0.67989   0.79829   0.23691   0.00000  Uiso   1.00
C96    C     0.78025   0.81956   0.21072   0.00000  Uiso   1.00
C97    C     0.93527   0.89842   0.17170   0.00000  Uiso   1.00
C98    C     0.60101   0.56449   0.33786   0.00000  Uiso   1.00
C99    C     0.59271   0.57348   0.41353   0.00000  Uiso   1.00
C100   C     0.65319   0.49194   0.46811   0.00000  Uiso   1.00
C101   C     0.73460   0.38115   0.57804   0.00000  Uiso   1.00
C102   C     0.46051   0.57185   0.20165   0.00000  Uiso   1.00
C103   C     0.33408   0.58700   0.16281   0.00000  Uiso   1.00
C104   C     0.27626   0.51164   0.10272   0.00000  Uiso   1.00
C105   C     0.13955   0.41229   0.00116   0.00000  Uiso   1.00
C106   C     0.66421   0.48359   0.23145   0.00000  Uiso   1.00
C107   C     0.71471   0.59928   0.22148   0.00000  Uiso   1.00
C108   C     0.81504   0.62039   0.19529   0.00000  Uiso   1.00
C109   C     0.84672   0.73207   0.19025   0.00000  Uiso   1.00
C110   C     0.66735   0.47716   0.31743   0.00000  Uiso   1.00
C111   C     0.72785   0.39558   0.37191   0.00000  Uiso   1.00
C112   C     0.71966   0.40444   0.44764   0.00000  Uiso   1.00
C113   C     0.52686   0.48452   0.18122   0.00000  Uiso   1.00
C114   C     0.46923   0.40911   0.12118   0.00000  Uiso   1.00
C115   C     0.34273   0.42415   0.08225   0.00000  Uiso   1.00
H116   H     0.49040   0.71237   0.28498   0.00000  Uiso   1.00
H117   H     0.62853   0.86585   0.25273   0.00000  Uiso   1.00
H118   H     0.54135   0.64106   0.42932   0.00000  Uiso   1.00
H119   H     0.28276   0.65460   0.17863   0.00000  Uiso   1.00
H120   H     0.81096   0.99749   0.20800   0.00000  Uiso   1.00
H121   H     0.62709   0.52350   0.58034   0.00000  Uiso   1.00
H122   H     0.08181   0.55203   0.05172   0.00000  Uiso   1.00
H123   H     0.71586   0.41560   0.21554   0.00000  Uiso   1.00
H124   H     0.86637   0.55279   0.17948   0.00000  Uiso   1.00
H125   H     0.77918   0.32801   0.35608   0.00000  Uiso   1.00
H126   H     0.52060   0.34154   0.10539   0.00000  Uiso   1.00
H127   H     0.00401   0.74340   0.14856   0.00000  Uiso   1.00
H128   H     0.82013   0.26941   0.52090   0.00000  Uiso   1.00
H129   H     0.27486   0.29794   0.99227   0.00000  Uiso   1.00
O130   O     0.00245   0.96605   0.15584   0.00000  Uiso   1.00
O131   O     0.76119   0.34418   0.64433   0.00000  Uiso   1.00
O132   O     0.04581   0.38162   0.95078   0.00000  Uiso   1.00
N133   N     0.83573   0.91886   0.19894   0.00000  Uiso   1.00
N134   N     0.66383   0.47572   0.54707   0.00000  Uiso   1.00
N135   N     0.15404   0.50238   0.05286   0.00000  Uiso   1.00
N136   N     0.93960   0.78214   0.16696   0.00000  Uiso   1.00
N137   N     0.76771   0.33900   0.51508   0.00000  Uiso   1.00
N138   N     0.25791   0.36565   0.02087   0.00000  Uiso   1.00
C139   C     0.45795   0.14438   0.23093   0.00000  Uiso   1.00
C140   C     0.35164   0.18662   0.25809   0.00000  Uiso   1.00
C141   C     0.32011   0.29829   0.26309   0.00000  Uiso   1.00
C142   C     0.21975   0.31956   0.28928   0.00000  Uiso   1.00
C143   C     0.06473   0.39842   0.32830   0.00000  Uiso   1.00
C144   C     0.39899   0.06449   0.16214   0.00000  Uiso   1.00
C145   C     0.40729   0.07348   0.08647   0.00000  Uiso   1.00
C146   C     0.34681   0.99194   0.03189   0.00000  Uiso   1.00
C147   C     0.26540   0.88115   0.92196   0.00000  Uiso   1.00
C148   C     0.53949   0.07185   0.29835   0.00000  Uiso   1.00
C149   C     0.66592   0.08700   0.33719   0.00000  Uiso   1.00
C150   C     0.72374   0.01164   0.39728   0.00000  Uiso   1.00
C151   C     0.86045   0.91229   0.49884   0.00000  Uiso   1.00
C152   C     0.33579   0.98359   0.26855   0.00000  Uiso   1.00
C153   C     0.28529   0.09928   0.27852   0.00000  Uiso   1.00
C154   C     0.18496   0.12039   0.30471   0.00000  Uiso   1.00
C155   C     0.15328   0.23207   0.30975   0.00000  Uiso   1.00
C156   C     0.33265   0.97716   0.18257   0.00000  Uiso   1.00
C157   C     0.27215   0.89558   0.12809   0.00000  Uiso   1.00
C158   C     0.28034   0.90444   0.05236   0.00000  Uiso   1.00
C159   C     0.47314   0.98452   0.31878   0.00000  Uiso   1.00
C160   C     0.53077   0.90911   0.37882   0.00000  Uiso   1.00
C161   C     0.65727   0.92415   0.41775   0.00000  Uiso   1.00
H162   H     0.50960   0.21237   0.21502   0.00000  Uiso   1.00
H163   H     0.37147   0.36585   0.24727   0.00000  Uiso   1.00
H164   H     0.45865   0.14106   0.07068   0.00000  Uiso   1.00
H165   H     0.71724   0.15460   0.32137   0.00000  Uiso   1.00
H166   H     0.18904   0.49749   0.29200   0.00000  Uiso   1.00
H167   H     0.37291   0.02350   0.91966   0.00000  Uiso   1.00
H168   H     0.91819   0.05203   0.44828   0.00000  Uiso   1.00
H169   H     0.28414   0.91560   0.28446   0.00000  Uiso   1.00
H170   H     0.13363   0.05279   0.32052   0.00000  Uiso   1.00
H171   H     0.22082   0.82801   0.14392   0.00000  Uiso   1.00
H172   H     0.47940   0.84154   0.39461   0.00000  Uiso   1.00
H173   H     0.99599   0.24340   0.35144   0.00000  Uiso   1.00
H174   H     0.17987   0.76941   0.97910   0.00000  Uiso   1.00
H175   H     0.72514   0.79794   0.50773   0.00000  Uiso   1.00
O176   O     0.99755   0.46605   0.34416   0.00000  Uiso   1.00
O177   O     0.23881   0.84418   0.85567   0.00000  Uiso   1.00
O178   O     0.95419   0.88162   0.54922   0.00000  Uiso   1.00
N179   N     0.16427   0.41886   0.30106   0.00000  Uiso   1.00
N180   N     0.33617   0.97572   0.95293   0.00000  Uiso   1.00
N181   N     0.84596   0.00238   0.44714   0.00000  Uiso   1.00
N182   N     0.06040   0.28214   0.33304   0.00000  Uiso   1.00
N183   N     0.23229   0.83900   0.98492   0.00000  Uiso   1.00
N184   N     0.74209   0.86565   0.47913   0.00000  Uiso   1.00
