data_job_03550
_audit_creation_date              2018-12-19
_audit_creation_method            'Materials Studio'
_symmetry_space_group_name_H-M    'P1'
_symmetry_Int_Tables_number       1
_symmetry_cell_setting            triclinic
loop_
_symmetry_equiv_pos_as_xyz
  x,y,z
_cell_length_a                    14.8614
_cell_length_b                    13.9388
_cell_length_c                    12.4876
_cell_angle_alpha                 90.0000
_cell_angle_beta                  87.7815
_cell_angle_gamma                 90.0000
loop_
_atom_site_label
_atom_site_type_symbol
_atom_site_fract_x
_atom_site_fract_y
_atom_site_fract_z
_atom_site_U_iso_or_equiv
_atom_site_adp_type
_atom_site_occupancy
C1     C     0.61869   0.30938   0.15929   0.00000  Uiso   1.00
C2     C     0.55816   0.39742   0.17070   0.00000  Uiso   1.00
C3     C     0.58422   0.49151   0.15049   0.00000  Uiso   1.00
C4     C     0.51884   0.56186   0.16570   0.00000  Uiso   1.00
C5     C     0.43829   0.70207   0.17827   0.00000  Uiso   1.00
C6     C     0.61395   0.25960   0.26810   0.00000  Uiso   1.00
C7     C     0.68692   0.23780   0.32978   0.00000  Uiso   1.00
C8     C     0.66850   0.19213   0.42698   0.00000  Uiso   1.00
C9     C     0.67458   0.11830   0.59073   0.00000  Uiso   1.00
C10    C     0.57263   0.24210   0.08222   0.00000  Uiso   1.00
C11    C     0.61087   0.20556   0.98761   0.00000  Uiso   1.00
C12    C     0.55767   0.14514   0.92832   0.00000  Uiso   1.00
C13    C     0.49960   0.04414   0.80346   0.00000  Uiso   1.00
C14    C     0.45624   0.26703   0.22224   0.00000  Uiso   1.00
C15    C     0.46993   0.37441   0.20489   0.00000  Uiso   1.00
C16    C     0.40449   0.44465   0.22014   0.00000  Uiso   1.00
C17    C     0.43045   0.53882   0.19995   0.00000  Uiso   1.00
C18    C     0.52572   0.23660   0.30230   0.00000  Uiso   1.00
C19    C     0.50719   0.19094   0.39942   0.00000  Uiso   1.00
C20    C     0.58011   0.16908   0.46123   0.00000  Uiso   1.00
C21    C     0.48440   0.21910   0.11641   0.00000  Uiso   1.00
C22    C     0.43114   0.15871   0.05726   0.00000  Uiso   1.00
C23    C     0.46928   0.12209   0.96258   0.00000  Uiso   1.00
H24    H     0.68738   0.32729   0.13268   0.00000  Uiso   1.00
H25    H     0.65251   0.50928   0.12404   0.00000  Uiso   1.00
H26    H     0.75519   0.25560   0.30329   0.00000  Uiso   1.00
H27    H     0.67915   0.22338   0.96118   0.00000  Uiso   1.00
H28    H     0.57494   0.70091   0.12958   0.00000  Uiso   1.00
H29    H     0.79146   0.16599   0.50753   0.00000  Uiso   1.00
H30    H     0.63111   0.09803   0.78612   0.00000  Uiso   1.00
H31    H     0.38755   0.24912   0.24886   0.00000  Uiso   1.00
H32    H     0.33622   0.42682   0.24660   0.00000  Uiso   1.00
H33    H     0.43891   0.17315   0.42586   0.00000  Uiso   1.00
H34    H     0.36286   0.14092   0.08374   0.00000  Uiso   1.00
H35    H     0.31823   0.63398   0.22906   0.00000  Uiso   1.00
H36    H     0.53475   0.09906   0.60701   0.00000  Uiso   1.00
H37    H     0.37440   0.03111   0.88559   0.00000  Uiso   1.00
O38    O     0.41823   0.78576   0.17577   0.00000  Uiso   1.00
O39    O     0.70230   0.08395   0.67161   0.00000  Uiso   1.00
O40    O     0.49193   0.99480   0.72513   0.00000  Uiso   1.00
N41    N     0.52156   0.66077   0.15328   0.00000  Uiso   1.00
N42    N     0.72400   0.16066   0.50665   0.00000  Uiso   1.00
N43    N     0.57409   0.09711   0.83220   0.00000  Uiso   1.00
N44    N     0.38343   0.62476   0.20681   0.00000  Uiso   1.00
N45    N     0.58586   0.12465   0.56018   0.00000  Uiso   1.00
N46    N     0.43596   0.06110   0.88573   0.00000  Uiso   1.00
C47    C     0.11869   0.80938   0.15929   0.00000  Uiso   1.00
C48    C     0.05816   0.89742   0.17070   0.00000  Uiso   1.00
C49    C     0.08422   0.99151   0.15049   0.00000  Uiso   1.00
C50    C     0.01884   0.06186   0.16570   0.00000  Uiso   1.00
C51    C     0.93829   0.20207   0.17827   0.00000  Uiso   1.00
C52    C     0.11395   0.75960   0.26810   0.00000  Uiso   1.00
C53    C     0.18692   0.73780   0.32978   0.00000  Uiso   1.00
C54    C     0.16850   0.69213   0.42698   0.00000  Uiso   1.00
C55    C     0.17458   0.61830   0.59073   0.00000  Uiso   1.00
C56    C     0.07263   0.74210   0.08222   0.00000  Uiso   1.00
C57    C     0.11087   0.70556   0.98761   0.00000  Uiso   1.00
C58    C     0.05767   0.64514   0.92832   0.00000  Uiso   1.00
C59    C     0.99960   0.54414   0.80346   0.00000  Uiso   1.00
C60    C     0.95624   0.76703   0.22224   0.00000  Uiso   1.00
C61    C     0.96993   0.87441   0.20489   0.00000  Uiso   1.00
C62    C     0.90449   0.94465   0.22014   0.00000  Uiso   1.00
C63    C     0.93045   0.03882   0.19995   0.00000  Uiso   1.00
C64    C     0.02572   0.73660   0.30230   0.00000  Uiso   1.00
C65    C     0.00719   0.69094   0.39942   0.00000  Uiso   1.00
C66    C     0.08011   0.66908   0.46123   0.00000  Uiso   1.00
C67    C     0.98440   0.71910   0.11641   0.00000  Uiso   1.00
C68    C     0.93114   0.65871   0.05726   0.00000  Uiso   1.00
C69    C     0.96928   0.62209   0.96258   0.00000  Uiso   1.00
H70    H     0.18738   0.82729   0.13268   0.00000  Uiso   1.00
H71    H     0.15251   0.00928   0.12404   0.00000  Uiso   1.00
H72    H     0.25519   0.75560   0.30329   0.00000  Uiso   1.00
H73    H     0.17915   0.72338   0.96118   0.00000  Uiso   1.00
H74    H     0.07494   0.20091   0.12958   0.00000  Uiso   1.00
H75    H     0.29146   0.66599   0.50753   0.00000  Uiso   1.00
H76    H     0.13111   0.59803   0.78612   0.00000  Uiso   1.00
H77    H     0.88755   0.74912   0.24886   0.00000  Uiso   1.00
H78    H     0.83622   0.92682   0.24660   0.00000  Uiso   1.00
H79    H     0.93891   0.67315   0.42586   0.00000  Uiso   1.00
H80    H     0.86286   0.64092   0.08374   0.00000  Uiso   1.00
H81    H     0.81823   0.13398   0.22906   0.00000  Uiso   1.00
H82    H     0.03475   0.59906   0.60701   0.00000  Uiso   1.00
H83    H     0.87440   0.53111   0.88559   0.00000  Uiso   1.00
O84    O     0.91823   0.28576   0.17577   0.00000  Uiso   1.00
O85    O     0.20230   0.58395   0.67161   0.00000  Uiso   1.00
O86    O     0.99193   0.49480   0.72513   0.00000  Uiso   1.00
N87    N     0.02156   0.16077   0.15328   0.00000  Uiso   1.00
N88    N     0.22400   0.66066   0.50665   0.00000  Uiso   1.00
N89    N     0.07409   0.59711   0.83220   0.00000  Uiso   1.00
N90    N     0.88343   0.12476   0.20681   0.00000  Uiso   1.00
N91    N     0.08586   0.62465   0.56018   0.00000  Uiso   1.00
N92    N     0.93596   0.56110   0.88573   0.00000  Uiso   1.00
C93    C     0.61869   0.69062   0.65929   0.00000  Uiso   1.00
C94    C     0.55816   0.60258   0.67070   0.00000  Uiso   1.00
C95    C     0.58422   0.50849   0.65049   0.00000  Uiso   1.00
C96    C     0.51884   0.43814   0.66570   0.00000  Uiso   1.00
C97    C     0.43829   0.29793   0.67827   0.00000  Uiso   1.00
C98    C     0.61395   0.74040   0.76810   0.00000  Uiso   1.00
C99    C     0.68692   0.76220   0.82978   0.00000  Uiso   1.00
C100   C     0.66850   0.80787   0.92698   0.00000  Uiso   1.00
C101   C     0.67458   0.88170   0.09073   0.00000  Uiso   1.00
C102   C     0.57263   0.75790   0.58222   0.00000  Uiso   1.00
C103   C     0.61087   0.79444   0.48761   0.00000  Uiso   1.00
C104   C     0.55767   0.85486   0.42832   0.00000  Uiso   1.00
C105   C     0.49960   0.95586   0.30346   0.00000  Uiso   1.00
C106   C     0.45624   0.73297   0.72224   0.00000  Uiso   1.00
C107   C     0.46993   0.62559   0.70489   0.00000  Uiso   1.00
C108   C     0.40449   0.55535   0.72014   0.00000  Uiso   1.00
C109   C     0.43045   0.46118   0.69995   0.00000  Uiso   1.00
C110   C     0.52572   0.76340   0.80230   0.00000  Uiso   1.00
C111   C     0.50719   0.80906   0.89942   0.00000  Uiso   1.00
C112   C     0.58011   0.83092   0.96123   0.00000  Uiso   1.00
C113   C     0.48440   0.78090   0.61641   0.00000  Uiso   1.00
C114   C     0.43114   0.84129   0.55726   0.00000  Uiso   1.00
C115   C     0.46928   0.87791   0.46258   0.00000  Uiso   1.00
H116   H     0.68738   0.67271   0.63268   0.00000  Uiso   1.00
H117   H     0.65251   0.49072   0.62404   0.00000  Uiso   1.00
H118   H     0.75519   0.74440   0.80329   0.00000  Uiso   1.00
H119   H     0.67915   0.77662   0.46118   0.00000  Uiso   1.00
H120   H     0.57494   0.29909   0.62958   0.00000  Uiso   1.00
H121   H     0.79146   0.83401   0.00753   0.00000  Uiso   1.00
H122   H     0.63111   0.90197   0.28612   0.00000  Uiso   1.00
H123   H     0.38755   0.75088   0.74886   0.00000  Uiso   1.00
H124   H     0.33622   0.57318   0.74660   0.00000  Uiso   1.00
H125   H     0.43891   0.82685   0.92586   0.00000  Uiso   1.00
H126   H     0.36286   0.85908   0.58374   0.00000  Uiso   1.00
H127   H     0.31823   0.36602   0.72906   0.00000  Uiso   1.00
H128   H     0.53475   0.90094   0.10701   0.00000  Uiso   1.00
H129   H     0.37440   0.96889   0.38559   0.00000  Uiso   1.00
O130   O     0.41823   0.21424   0.67577   0.00000  Uiso   1.00
O131   O     0.70230   0.91605   0.17161   0.00000  Uiso   1.00
O132   O     0.49193   0.00520   0.22513   0.00000  Uiso   1.00
N133   N     0.52156   0.33923   0.65328   0.00000  Uiso   1.00
N134   N     0.72400   0.83934   0.00665   0.00000  Uiso   1.00
N135   N     0.57409   0.90289   0.33220   0.00000  Uiso   1.00
N136   N     0.38343   0.37524   0.70681   0.00000  Uiso   1.00
N137   N     0.58586   0.87535   0.06018   0.00000  Uiso   1.00
N138   N     0.43596   0.93890   0.38573   0.00000  Uiso   1.00
C139   C     0.11869   0.19062   0.65929   0.00000  Uiso   1.00
C140   C     0.05816   0.10258   0.67070   0.00000  Uiso   1.00
C141   C     0.08422   0.00849   0.65049   0.00000  Uiso   1.00
C142   C     0.01884   0.93814   0.66570   0.00000  Uiso   1.00
C143   C     0.93829   0.79793   0.67827   0.00000  Uiso   1.00
C144   C     0.11395   0.24040   0.76810   0.00000  Uiso   1.00
C145   C     0.18692   0.26220   0.82978   0.00000  Uiso   1.00
C146   C     0.16850   0.30787   0.92698   0.00000  Uiso   1.00
C147   C     0.17458   0.38170   0.09073   0.00000  Uiso   1.00
C148   C     0.07263   0.25790   0.58222   0.00000  Uiso   1.00
C149   C     0.11087   0.29444   0.48761   0.00000  Uiso   1.00
C150   C     0.05767   0.35486   0.42832   0.00000  Uiso   1.00
C151   C     0.99960   0.45586   0.30346   0.00000  Uiso   1.00
C152   C     0.95624   0.23297   0.72224   0.00000  Uiso   1.00
C153   C     0.96993   0.12559   0.70489   0.00000  Uiso   1.00
C154   C     0.90449   0.05535   0.72014   0.00000  Uiso   1.00
C155   C     0.93045   0.96118   0.69995   0.00000  Uiso   1.00
C156   C     0.02572   0.26340   0.80230   0.00000  Uiso   1.00
C157   C     0.00719   0.30906   0.89942   0.00000  Uiso   1.00
C158   C     0.08011   0.33092   0.96123   0.00000  Uiso   1.00
C159   C     0.98440   0.28090   0.61641   0.00000  Uiso   1.00
C160   C     0.93114   0.34129   0.55726   0.00000  Uiso   1.00
C161   C     0.96928   0.37791   0.46258   0.00000  Uiso   1.00
H162   H     0.18738   0.17271   0.63268   0.00000  Uiso   1.00
H163   H     0.15251   0.99072   0.62404   0.00000  Uiso   1.00
H164   H     0.25519   0.24440   0.80329   0.00000  Uiso   1.00
H165   H     0.17915   0.27662   0.46118   0.00000  Uiso   1.00
H166   H     0.07494   0.79909   0.62958   0.00000  Uiso   1.00
H167   H     0.29146   0.33401   0.00753   0.00000  Uiso   1.00
H168   H     0.13111   0.40197   0.28612   0.00000  Uiso   1.00
H169   H     0.88755   0.25088   0.74886   0.00000  Uiso   1.00
H170   H     0.83622   0.07318   0.74660   0.00000  Uiso   1.00
H171   H     0.93891   0.32685   0.92586   0.00000  Uiso   1.00
H172   H     0.86286   0.35908   0.58374   0.00000  Uiso   1.00
H173   H     0.81823   0.86602   0.72906   0.00000  Uiso   1.00
H174   H     0.03475   0.40094   0.10701   0.00000  Uiso   1.00
H175   H     0.87440   0.46889   0.38559   0.00000  Uiso   1.00
O176   O     0.91823   0.71424   0.67577   0.00000  Uiso   1.00
O177   O     0.20230   0.41605   0.17161   0.00000  Uiso   1.00
O178   O     0.99193   0.50520   0.22513   0.00000  Uiso   1.00
N179   N     0.02156   0.83923   0.65328   0.00000  Uiso   1.00
N180   N     0.22400   0.33934   0.00665   0.00000  Uiso   1.00
N181   N     0.07409   0.40289   0.33220   0.00000  Uiso   1.00
N182   N     0.88343   0.87524   0.70681   0.00000  Uiso   1.00
N183   N     0.08586   0.37535   0.06018   0.00000  Uiso   1.00
N184   N     0.93596   0.43890   0.38573   0.00000  Uiso   1.00
