data_job_02338
_audit_creation_date              2018-12-19
_audit_creation_method            'Materials Studio'
_symmetry_space_group_name_H-M    'P1'
_symmetry_Int_Tables_number       1
_symmetry_cell_setting            triclinic
loop_
_symmetry_equiv_pos_as_xyz
  x,y,z
_cell_length_a                    17.2268
_cell_length_b                    25.3135
_cell_length_c                    11.5381
_cell_angle_alpha                 90.0000
_cell_angle_beta                  90.0000
_cell_angle_gamma                 90.0000
loop_
_atom_site_label
_atom_site_type_symbol
_atom_site_fract_x
_atom_site_fract_y
_atom_site_fract_z
_atom_site_U_iso_or_equiv
_atom_site_adp_type
_atom_site_occupancy
C1     C     0.60384   0.07285   0.19244   0.00000  Uiso   1.00
C2     C     0.52627   0.06810   0.12961   0.00000  Uiso   1.00
C3     C     0.49842   0.02312   0.07484   0.00000  Uiso   1.00
C4     C     0.42612   0.02682   0.02229   0.00000  Uiso   1.00
C5     C     0.31221   0.01231   0.92434   0.00000  Uiso   1.00
C6     C     0.64645   0.11878   0.13528   0.00000  Uiso   1.00
C7     C     0.71964   0.11640   0.08530   0.00000  Uiso   1.00
C8     C     0.74851   0.16275   0.03754   0.00000  Uiso   1.00
C9     C     0.82120   0.22692   0.94847   0.00000  Uiso   1.00
C10    C     0.58475   0.09097   0.31521   0.00000  Uiso   1.00
C11    C     0.60608   0.06523   0.41652   0.00000  Uiso   1.00
C12    C     0.58301   0.08818   0.52025   0.00000  Uiso   1.00
C13    C     0.55991   0.10918   0.71055   0.00000  Uiso   1.00
C14    C     0.52496   0.15939   0.19652   0.00000  Uiso   1.00
C15    C     0.48343   0.11511   0.13182   0.00000  Uiso   1.00
C16    C     0.41115   0.11887   0.07935   0.00000  Uiso   1.00
C17    C     0.38320   0.07391   0.02451   0.00000  Uiso   1.00
C18    C     0.60361   0.16578   0.13749   0.00000  Uiso   1.00
C19    C     0.63237   0.21215   0.08980   0.00000  Uiso   1.00
C20    C     0.70559   0.20985   0.03975   0.00000  Uiso   1.00
C21    C     0.54190   0.13798   0.31743   0.00000  Uiso   1.00
C22    C     0.51881   0.16098   0.42102   0.00000  Uiso   1.00
C23    C     0.54010   0.13527   0.52247   0.00000  Uiso   1.00
H24    H     0.63719   0.03625   0.19072   0.00000  Uiso   1.00
H25    H     0.53159   0.98676   0.07314   0.00000  Uiso   1.00
H26    H     0.75278   0.08002   0.08361   0.00000  Uiso   1.00
H27    H     0.63923   0.02885   0.41477   0.00000  Uiso   1.00
H28    H     0.39564   0.95261   0.94372   0.00000  Uiso   1.00
H29    H     0.86203   0.14927   0.96583   0.00000  Uiso   1.00
H30    H     0.62260   0.04137   0.66416   0.00000  Uiso   1.00
H31    H     0.49161   0.19599   0.19824   0.00000  Uiso   1.00
H32    H     0.37801   0.15526   0.08107   0.00000  Uiso   1.00
H33    H     0.59921   0.24852   0.09154   0.00000  Uiso   1.00
H34    H     0.48566   0.19735   0.42270   0.00000  Uiso   1.00
H35    H     0.27099   0.08938   0.95015   0.00000  Uiso   1.00
H36    H     0.73739   0.28603   0.97227   0.00000  Uiso   1.00
H37    H     0.49795   0.17814   0.67059   0.00000  Uiso   1.00
O38    O     0.26123   0.99132   0.86969   0.00000  Uiso   1.00
O39    O     0.87313   0.24933   0.89872   0.00000  Uiso   1.00
O40    O     0.55899   0.10777   0.81491   0.00000  Uiso   1.00
N41    N     0.38188   0.99039   0.96133   0.00000  Uiso   1.00
N42    N     0.81793   0.17425   0.98199   0.00000  Uiso   1.00
N43    N     0.59410   0.07338   0.63487   0.00000  Uiso   1.00
N44    N     0.31481   0.06398   0.96480   0.00000  Uiso   1.00
N45    N     0.75086   0.24784   0.98545   0.00000  Uiso   1.00
N46    N     0.52702   0.14697   0.63833   0.00000  Uiso   1.00
C47    C     0.39447   0.91933   0.63023   0.00000  Uiso   1.00
C48    C     0.47188   0.92435   0.69339   0.00000  Uiso   1.00
C49    C     0.49888   0.96924   0.74942   0.00000  Uiso   1.00
C50    C     0.57118   0.96584   0.80206   0.00000  Uiso   1.00
C51    C     0.68472   0.98073   0.90069   0.00000  Uiso   1.00
C52    C     0.35260   0.87274   0.68605   0.00000  Uiso   1.00
C53    C     0.27932   0.87425   0.73590   0.00000  Uiso   1.00
C54    C     0.25121   0.82741   0.78235   0.00000  Uiso   1.00
C55    C     0.17955   0.76217   0.86951   0.00000  Uiso   1.00
C56    C     0.41401   0.90204   0.50704   0.00000  Uiso   1.00
C57    C     0.39234   0.92816   0.40636   0.00000  Uiso   1.00
C58    C     0.41592   0.90597   0.30209   0.00000  Uiso   1.00
C59    C     0.43960   0.88622   0.11131   0.00000  Uiso   1.00
C60    C     0.47486   0.83345   0.62407   0.00000  Uiso   1.00
C61    C     0.51554   0.87770   0.69004   0.00000  Uiso   1.00
C62    C     0.58782   0.87424   0.74261   0.00000  Uiso   1.00
C63    C     0.61492   0.91912   0.79871   0.00000  Uiso   1.00
C64    C     0.39626   0.82610   0.68271   0.00000  Uiso   1.00
C65    C     0.36826   0.77924   0.72909   0.00000  Uiso   1.00
C66    C     0.29495   0.78068   0.77900   0.00000  Uiso   1.00
C67    C     0.45768   0.85539   0.50369   0.00000  Uiso   1.00
C68    C     0.48128   0.83316   0.39955   0.00000  Uiso   1.00
C69    C     0.45966   0.85925   0.29874   0.00000  Uiso   1.00
H70    H     0.36047   0.95564   0.63283   0.00000  Uiso   1.00
H71    H     0.46507   0.00533   0.75200   0.00000  Uiso   1.00
H72    H     0.24554   0.91035   0.73846   0.00000  Uiso   1.00
H73    H     0.35855   0.96425   0.40898   0.00000  Uiso   1.00
H74    H     0.60028   0.03985   0.88268   0.00000  Uiso   1.00
H75    H     0.13738   0.83957   0.85411   0.00000  Uiso   1.00
H76    H     0.37568   0.95325   0.15933   0.00000  Uiso   1.00
H77    H     0.50885   0.79714   0.62147   0.00000  Uiso   1.00
H78    H     0.62159   0.83814   0.74001   0.00000  Uiso   1.00
H79    H     0.40206   0.74316   0.72648   0.00000  Uiso   1.00
H80    H     0.51507   0.79706   0.39700   0.00000  Uiso   1.00
H81    H     0.72732   0.90415   0.87295   0.00000  Uiso   1.00
H82    H     0.26441   0.70387   0.84438   0.00000  Uiso   1.00
H83    H     0.50272   0.81755   0.14960   0.00000  Uiso   1.00
O84    O     0.73527   0.00182   0.95603   0.00000  Uiso   1.00
O85    O     0.12796   0.73907   0.91853   0.00000  Uiso   1.00
O86    O     0.44061   0.88820   0.00700   0.00000  Uiso   1.00
N87    N     0.61471   0.00229   0.86410   0.00000  Uiso   1.00
N88    N     0.18193   0.81505   0.83740   0.00000  Uiso   1.00
N89    N     0.40471   0.92131   0.18785   0.00000  Uiso   1.00
N90    N     0.68307   0.92927   0.85886   0.00000  Uiso   1.00
N91    N     0.25029   0.74203   0.83217   0.00000  Uiso   1.00
N92    N     0.47306   0.84829   0.18261   0.00000  Uiso   1.00
C93    C     0.89616   0.92715   0.69244   0.00000  Uiso   1.00
C94    C     0.97373   0.93190   0.62961   0.00000  Uiso   1.00
C95    C     0.00158   0.97688   0.57484   0.00000  Uiso   1.00
C96    C     0.07388   0.97318   0.52229   0.00000  Uiso   1.00
C97    C     0.18779   0.98769   0.42434   0.00000  Uiso   1.00
C98    C     0.85355   0.88122   0.63528   0.00000  Uiso   1.00
C99    C     0.78036   0.88360   0.58530   0.00000  Uiso   1.00
C100   C     0.75149   0.83725   0.53754   0.00000  Uiso   1.00
C101   C     0.67880   0.77308   0.44847   0.00000  Uiso   1.00
C102   C     0.91525   0.90903   0.81521   0.00000  Uiso   1.00
C103   C     0.89392   0.93477   0.91652   0.00000  Uiso   1.00
C104   C     0.91699   0.91182   0.02025   0.00000  Uiso   1.00
C105   C     0.94009   0.89082   0.21055   0.00000  Uiso   1.00
C106   C     0.97504   0.84061   0.69652   0.00000  Uiso   1.00
C107   C     0.01657   0.88489   0.63182   0.00000  Uiso   1.00
C108   C     0.08885   0.88113   0.57935   0.00000  Uiso   1.00
C109   C     0.11680   0.92609   0.52451   0.00000  Uiso   1.00
C110   C     0.89639   0.83422   0.63749   0.00000  Uiso   1.00
C111   C     0.86763   0.78785   0.58980   0.00000  Uiso   1.00
C112   C     0.79441   0.79015   0.53975   0.00000  Uiso   1.00
C113   C     0.95810   0.86202   0.81743   0.00000  Uiso   1.00
C114   C     0.98119   0.83902   0.92102   0.00000  Uiso   1.00
C115   C     0.95990   0.86473   0.02247   0.00000  Uiso   1.00
H116   H     0.86281   0.96375   0.69072   0.00000  Uiso   1.00
H117   H     0.96841   0.01324   0.57314   0.00000  Uiso   1.00
H118   H     0.74722   0.91998   0.58361   0.00000  Uiso   1.00
H119   H     0.86077   0.97115   0.91477   0.00000  Uiso   1.00
H120   H     0.10436   0.04739   0.44372   0.00000  Uiso   1.00
H121   H     0.63797   0.85073   0.46583   0.00000  Uiso   1.00
H122   H     0.87740   0.95863   0.16416   0.00000  Uiso   1.00
H123   H     0.00839   0.80401   0.69824   0.00000  Uiso   1.00
H124   H     0.12199   0.84474   0.58107   0.00000  Uiso   1.00
H125   H     0.90079   0.75148   0.59154   0.00000  Uiso   1.00
H126   H     0.01434   0.80265   0.92270   0.00000  Uiso   1.00
H127   H     0.22901   0.91062   0.45015   0.00000  Uiso   1.00
H128   H     0.76261   0.71397   0.47227   0.00000  Uiso   1.00
H129   H     0.00205   0.82186   0.17059   0.00000  Uiso   1.00
O130   O     0.23877   0.00868   0.36969   0.00000  Uiso   1.00
O131   O     0.62687   0.75067   0.39872   0.00000  Uiso   1.00
O132   O     0.94101   0.89223   0.31491   0.00000  Uiso   1.00
N133   N     0.11812   0.00961   0.46133   0.00000  Uiso   1.00
N134   N     0.68207   0.82575   0.48199   0.00000  Uiso   1.00
N135   N     0.90590   0.92662   0.13487   0.00000  Uiso   1.00
N136   N     0.18519   0.93602   0.46480   0.00000  Uiso   1.00
N137   N     0.74914   0.75216   0.48545   0.00000  Uiso   1.00
N138   N     0.97298   0.85303   0.13833   0.00000  Uiso   1.00
C139   C     0.10553   0.08067   0.13023   0.00000  Uiso   1.00
C140   C     0.02812   0.07565   0.19339   0.00000  Uiso   1.00
C141   C     0.00112   0.03076   0.24942   0.00000  Uiso   1.00
C142   C     0.92882   0.03416   0.30206   0.00000  Uiso   1.00
C143   C     0.81528   0.01927   0.40069   0.00000  Uiso   1.00
C144   C     0.14740   0.12726   0.18605   0.00000  Uiso   1.00
C145   C     0.22068   0.12575   0.23590   0.00000  Uiso   1.00
C146   C     0.24879   0.17259   0.28235   0.00000  Uiso   1.00
C147   C     0.32045   0.23783   0.36951   0.00000  Uiso   1.00
C148   C     0.08599   0.09796   0.00704   0.00000  Uiso   1.00
C149   C     0.10766   0.07184   0.90636   0.00000  Uiso   1.00
C150   C     0.08408   0.09403   0.80209   0.00000  Uiso   1.00
C151   C     0.06040   0.11378   0.61131   0.00000  Uiso   1.00
C152   C     0.02514   0.16655   0.12407   0.00000  Uiso   1.00
C153   C     0.98446   0.12230   0.19004   0.00000  Uiso   1.00
C154   C     0.91218   0.12576   0.24261   0.00000  Uiso   1.00
C155   C     0.88508   0.08088   0.29871   0.00000  Uiso   1.00
C156   C     0.10374   0.17390   0.18271   0.00000  Uiso   1.00
C157   C     0.13174   0.22076   0.22909   0.00000  Uiso   1.00
C158   C     0.20505   0.21932   0.27900   0.00000  Uiso   1.00
C159   C     0.04232   0.14461   0.00369   0.00000  Uiso   1.00
C160   C     0.01872   0.16684   0.89955   0.00000  Uiso   1.00
C161   C     0.04034   0.14075   0.79874   0.00000  Uiso   1.00
H162   H     0.13953   0.04436   0.13283   0.00000  Uiso   1.00
H163   H     0.03493   0.99467   0.25200   0.00000  Uiso   1.00
H164   H     0.25446   0.08965   0.23846   0.00000  Uiso   1.00
H165   H     0.14145   0.03575   0.90898   0.00000  Uiso   1.00
H166   H     0.89972   0.96015   0.38268   0.00000  Uiso   1.00
H167   H     0.36262   0.16043   0.35411   0.00000  Uiso   1.00
H168   H     0.12432   0.04675   0.65933   0.00000  Uiso   1.00
H169   H     0.99115   0.20286   0.12147   0.00000  Uiso   1.00
H170   H     0.87841   0.16186   0.24001   0.00000  Uiso   1.00
H171   H     0.09794   0.25684   0.22648   0.00000  Uiso   1.00
H172   H     0.98493   0.20294   0.89700   0.00000  Uiso   1.00
H173   H     0.77268   0.09585   0.37295   0.00000  Uiso   1.00
H174   H     0.23559   0.29613   0.34438   0.00000  Uiso   1.00
H175   H     0.99728   0.18245   0.64960   0.00000  Uiso   1.00
O176   O     0.76473   0.99818   0.45603   0.00000  Uiso   1.00
O177   O     0.37204   0.26093   0.41853   0.00000  Uiso   1.00
O178   O     0.05939   0.11180   0.50700   0.00000  Uiso   1.00
N179   N     0.88529   0.99771   0.36410   0.00000  Uiso   1.00
N180   N     0.31807   0.18495   0.33740   0.00000  Uiso   1.00
N181   N     0.09529   0.07869   0.68785   0.00000  Uiso   1.00
N182   N     0.81693   0.07073   0.35886   0.00000  Uiso   1.00
N183   N     0.24971   0.25797   0.33217   0.00000  Uiso   1.00
N184   N     0.02694   0.15171   0.68261   0.00000  Uiso   1.00
C185   C     0.39616   0.57285   0.30756   0.00000  Uiso   1.00
C186   C     0.47373   0.56810   0.37039   0.00000  Uiso   1.00
C187   C     0.50158   0.52312   0.42516   0.00000  Uiso   1.00
C188   C     0.57388   0.52682   0.47771   0.00000  Uiso   1.00
C189   C     0.68779   0.51231   0.57566   0.00000  Uiso   1.00
C190   C     0.35355   0.61878   0.36472   0.00000  Uiso   1.00
C191   C     0.28036   0.61640   0.41470   0.00000  Uiso   1.00
C192   C     0.25149   0.66275   0.46246   0.00000  Uiso   1.00
C193   C     0.17880   0.72692   0.55153   0.00000  Uiso   1.00
C194   C     0.41525   0.59097   0.18479   0.00000  Uiso   1.00
C195   C     0.39392   0.56523   0.08348   0.00000  Uiso   1.00
C196   C     0.41699   0.58818   0.97975   0.00000  Uiso   1.00
C197   C     0.44009   0.60918   0.78945   0.00000  Uiso   1.00
C198   C     0.47504   0.65939   0.30348   0.00000  Uiso   1.00
C199   C     0.51657   0.61511   0.36818   0.00000  Uiso   1.00
C200   C     0.58885   0.61887   0.42065   0.00000  Uiso   1.00
C201   C     0.61680   0.57391   0.47549   0.00000  Uiso   1.00
C202   C     0.39639   0.66578   0.36251   0.00000  Uiso   1.00
C203   C     0.36763   0.71215   0.41020   0.00000  Uiso   1.00
C204   C     0.29441   0.70985   0.46025   0.00000  Uiso   1.00
C205   C     0.45810   0.63798   0.18257   0.00000  Uiso   1.00
C206   C     0.48119   0.66098   0.07898   0.00000  Uiso   1.00
C207   C     0.45990   0.63527   0.97753   0.00000  Uiso   1.00
H208   H     0.36281   0.53625   0.30928   0.00000  Uiso   1.00
H209   H     0.46841   0.48676   0.42686   0.00000  Uiso   1.00
H210   H     0.24722   0.58002   0.41639   0.00000  Uiso   1.00
H211   H     0.36077   0.52885   0.08523   0.00000  Uiso   1.00
H212   H     0.60436   0.45261   0.55628   0.00000  Uiso   1.00
H213   H     0.13797   0.64927   0.53417   0.00000  Uiso   1.00
H214   H     0.37740   0.54137   0.83584   0.00000  Uiso   1.00
H215   H     0.50839   0.69599   0.30176   0.00000  Uiso   1.00
H216   H     0.62199   0.65526   0.41893   0.00000  Uiso   1.00
H217   H     0.40079   0.74852   0.40846   0.00000  Uiso   1.00
H218   H     0.51434   0.69735   0.07730   0.00000  Uiso   1.00
H219   H     0.72901   0.58938   0.54985   0.00000  Uiso   1.00
H220   H     0.26261   0.78603   0.52773   0.00000  Uiso   1.00
H221   H     0.50205   0.67814   0.82941   0.00000  Uiso   1.00
O222   O     0.73877   0.49132   0.63031   0.00000  Uiso   1.00
O223   O     0.12687   0.74933   0.60128   0.00000  Uiso   1.00
O224   O     0.44101   0.60777   0.68509   0.00000  Uiso   1.00
N225   N     0.61812   0.49039   0.53867   0.00000  Uiso   1.00
N226   N     0.18207   0.67425   0.51801   0.00000  Uiso   1.00
N227   N     0.40590   0.57338   0.86513   0.00000  Uiso   1.00
N228   N     0.68519   0.56398   0.53520   0.00000  Uiso   1.00
N229   N     0.24914   0.74784   0.51455   0.00000  Uiso   1.00
N230   N     0.47298   0.64697   0.86167   0.00000  Uiso   1.00
C231   C     0.60553   0.41933   0.86977   0.00000  Uiso   1.00
C232   C     0.52812   0.42435   0.80661   0.00000  Uiso   1.00
C233   C     0.50112   0.46924   0.75058   0.00000  Uiso   1.00
C234   C     0.42882   0.46584   0.69794   0.00000  Uiso   1.00
C235   C     0.31528   0.48073   0.59931   0.00000  Uiso   1.00
C236   C     0.64740   0.37274   0.81395   0.00000  Uiso   1.00
C237   C     0.72068   0.37425   0.76410   0.00000  Uiso   1.00
C238   C     0.74879   0.32741   0.71765   0.00000  Uiso   1.00
C239   C     0.82045   0.26217   0.63049   0.00000  Uiso   1.00
C240   C     0.58599   0.40204   0.99296   0.00000  Uiso   1.00
C241   C     0.60766   0.42816   0.09364   0.00000  Uiso   1.00
C242   C     0.58408   0.40597   0.19791   0.00000  Uiso   1.00
C243   C     0.56040   0.38622   0.38869   0.00000  Uiso   1.00
C244   C     0.52514   0.33345   0.87593   0.00000  Uiso   1.00
C245   C     0.48446   0.37770   0.80996   0.00000  Uiso   1.00
C246   C     0.41218   0.37424   0.75739   0.00000  Uiso   1.00
C247   C     0.38508   0.41912   0.70129   0.00000  Uiso   1.00
C248   C     0.60374   0.32610   0.81729   0.00000  Uiso   1.00
C249   C     0.63174   0.27924   0.77091   0.00000  Uiso   1.00
C250   C     0.70505   0.28068   0.72100   0.00000  Uiso   1.00
C251   C     0.54232   0.35539   0.99631   0.00000  Uiso   1.00
C252   C     0.51872   0.33316   0.10045   0.00000  Uiso   1.00
C253   C     0.54034   0.35925   0.20126   0.00000  Uiso   1.00
H254   H     0.63953   0.45564   0.86717   0.00000  Uiso   1.00
H255   H     0.53493   0.50533   0.74800   0.00000  Uiso   1.00
H256   H     0.75446   0.41035   0.76154   0.00000  Uiso   1.00
H257   H     0.64145   0.46425   0.09102   0.00000  Uiso   1.00
H258   H     0.39972   0.53985   0.61732   0.00000  Uiso   1.00
H259   H     0.86262   0.33957   0.64589   0.00000  Uiso   1.00
H260   H     0.62432   0.45325   0.34067   0.00000  Uiso   1.00
H261   H     0.49115   0.29714   0.87853   0.00000  Uiso   1.00
H262   H     0.37841   0.33814   0.75999   0.00000  Uiso   1.00
H263   H     0.59794   0.24316   0.77352   0.00000  Uiso   1.00
H264   H     0.48493   0.29706   0.10300   0.00000  Uiso   1.00
H265   H     0.27268   0.40415   0.62705   0.00000  Uiso   1.00
H266   H     0.73559   0.20387   0.65562   0.00000  Uiso   1.00
H267   H     0.49728   0.31755   0.35040   0.00000  Uiso   1.00
O268   O     0.26473   0.50182   0.54397   0.00000  Uiso   1.00
O269   O     0.87204   0.23907   0.58147   0.00000  Uiso   1.00
O270   O     0.55939   0.38820   0.49300   0.00000  Uiso   1.00
N271   N     0.38529   0.50229   0.63590   0.00000  Uiso   1.00
N272   N     0.81807   0.31505   0.66260   0.00000  Uiso   1.00
N273   N     0.59529   0.42131   0.31215   0.00000  Uiso   1.00
N274   N     0.31693   0.42927   0.64114   0.00000  Uiso   1.00
N275   N     0.74971   0.24203   0.66783   0.00000  Uiso   1.00
N276   N     0.52694   0.34829   0.31739   0.00000  Uiso   1.00
C277   C     0.10384   0.42715   0.80756   0.00000  Uiso   1.00
C278   C     0.02627   0.43190   0.87039   0.00000  Uiso   1.00
C279   C     0.99842   0.47688   0.92516   0.00000  Uiso   1.00
C280   C     0.92612   0.47318   0.97771   0.00000  Uiso   1.00
C281   C     0.81221   0.48769   0.07566   0.00000  Uiso   1.00
C282   C     0.14645   0.38122   0.86472   0.00000  Uiso   1.00
C283   C     0.21964   0.38360   0.91470   0.00000  Uiso   1.00
C284   C     0.24851   0.33725   0.96246   0.00000  Uiso   1.00
C285   C     0.32120   0.27308   0.05153   0.00000  Uiso   1.00
C286   C     0.08475   0.40903   0.68479   0.00000  Uiso   1.00
C287   C     0.10608   0.43477   0.58348   0.00000  Uiso   1.00
C288   C     0.08301   0.41182   0.47975   0.00000  Uiso   1.00
C289   C     0.05991   0.39082   0.28945   0.00000  Uiso   1.00
C290   C     0.02496   0.34061   0.80348   0.00000  Uiso   1.00
C291   C     0.98343   0.38489   0.86818   0.00000  Uiso   1.00
C292   C     0.91115   0.38113   0.92065   0.00000  Uiso   1.00
C293   C     0.88320   0.42609   0.97549   0.00000  Uiso   1.00
C294   C     0.10361   0.33422   0.86251   0.00000  Uiso   1.00
C295   C     0.13237   0.28785   0.91020   0.00000  Uiso   1.00
C296   C     0.20559   0.29015   0.96025   0.00000  Uiso   1.00
C297   C     0.04190   0.36202   0.68257   0.00000  Uiso   1.00
C298   C     0.01881   0.33902   0.57898   0.00000  Uiso   1.00
C299   C     0.04010   0.36473   0.47753   0.00000  Uiso   1.00
H300   H     0.13719   0.46375   0.80928   0.00000  Uiso   1.00
H301   H     0.03159   0.51324   0.92686   0.00000  Uiso   1.00
H302   H     0.25278   0.41998   0.91639   0.00000  Uiso   1.00
H303   H     0.13923   0.47115   0.58523   0.00000  Uiso   1.00
H304   H     0.89564   0.54739   0.05628   0.00000  Uiso   1.00
H305   H     0.36203   0.35073   0.03417   0.00000  Uiso   1.00
H306   H     0.12260   0.45863   0.33584   0.00000  Uiso   1.00
H307   H     0.99161   0.30401   0.80176   0.00000  Uiso   1.00
H308   H     0.87801   0.34474   0.91893   0.00000  Uiso   1.00
H309   H     0.09921   0.25148   0.90846   0.00000  Uiso   1.00
H310   H     0.98566   0.30265   0.57730   0.00000  Uiso   1.00
H311   H     0.77099   0.41062   0.04985   0.00000  Uiso   1.00
H312   H     0.23739   0.21397   0.02773   0.00000  Uiso   1.00
H313   H     0.99795   0.32186   0.32941   0.00000  Uiso   1.00
O314   O     0.76123   0.50868   0.13031   0.00000  Uiso   1.00
O315   O     0.37313   0.25067   0.10128   0.00000  Uiso   1.00
O316   O     0.05899   0.39223   0.18509   0.00000  Uiso   1.00
N317   N     0.88188   0.50961   0.03867   0.00000  Uiso   1.00
N318   N     0.31793   0.32575   0.01801   0.00000  Uiso   1.00
N319   N     0.09410   0.42662   0.36513   0.00000  Uiso   1.00
N320   N     0.81481   0.43602   0.03520   0.00000  Uiso   1.00
N321   N     0.25086   0.25216   0.01455   0.00000  Uiso   1.00
N322   N     0.02702   0.35303   0.36167   0.00000  Uiso   1.00
C323   C     0.89447   0.58067   0.36977   0.00000  Uiso   1.00
C324   C     0.97188   0.57565   0.30661   0.00000  Uiso   1.00
C325   C     0.99888   0.53076   0.25058   0.00000  Uiso   1.00
C326   C     0.07118   0.53416   0.19794   0.00000  Uiso   1.00
C327   C     0.18472   0.51927   0.09931   0.00000  Uiso   1.00
C328   C     0.85260   0.62726   0.31395   0.00000  Uiso   1.00
C329   C     0.77932   0.62575   0.26410   0.00000  Uiso   1.00
C330   C     0.75121   0.67259   0.21765   0.00000  Uiso   1.00
C331   C     0.67955   0.73783   0.13049   0.00000  Uiso   1.00
C332   C     0.91401   0.59796   0.49296   0.00000  Uiso   1.00
C333   C     0.89234   0.57184   0.59364   0.00000  Uiso   1.00
C334   C     0.91592   0.59403   0.69791   0.00000  Uiso   1.00
C335   C     0.93960   0.61378   0.88869   0.00000  Uiso   1.00
C336   C     0.97486   0.66655   0.37593   0.00000  Uiso   1.00
C337   C     0.01554   0.62230   0.30996   0.00000  Uiso   1.00
C338   C     0.08782   0.62576   0.25739   0.00000  Uiso   1.00
C339   C     0.11492   0.58088   0.20129   0.00000  Uiso   1.00
C340   C     0.89626   0.67390   0.31729   0.00000  Uiso   1.00
C341   C     0.86826   0.72076   0.27091   0.00000  Uiso   1.00
C342   C     0.79495   0.71932   0.22100   0.00000  Uiso   1.00
C343   C     0.95768   0.64461   0.49631   0.00000  Uiso   1.00
C344   C     0.98128   0.66684   0.60045   0.00000  Uiso   1.00
C345   C     0.95966   0.64075   0.70126   0.00000  Uiso   1.00
H346   H     0.86047   0.54436   0.36717   0.00000  Uiso   1.00
H347   H     0.96507   0.49467   0.24800   0.00000  Uiso   1.00
H348   H     0.74554   0.58965   0.26154   0.00000  Uiso   1.00
H349   H     0.85855   0.53575   0.59102   0.00000  Uiso   1.00
H350   H     0.10028   0.46015   0.11732   0.00000  Uiso   1.00
H351   H     0.63738   0.66043   0.14589   0.00000  Uiso   1.00
H352   H     0.87568   0.54675   0.84067   0.00000  Uiso   1.00
H353   H     0.00885   0.70286   0.37853   0.00000  Uiso   1.00
H354   H     0.12159   0.66186   0.25999   0.00000  Uiso   1.00
H355   H     0.90206   0.75684   0.27352   0.00000  Uiso   1.00
H356   H     0.01507   0.70294   0.60300   0.00000  Uiso   1.00
H357   H     0.22732   0.59585   0.12705   0.00000  Uiso   1.00
H358   H     0.76441   0.79613   0.15562   0.00000  Uiso   1.00
H359   H     0.00272   0.68245   0.85040   0.00000  Uiso   1.00
O360   O     0.23527   0.49818   0.04397   0.00000  Uiso   1.00
O361   O     0.62796   0.76093   0.08147   0.00000  Uiso   1.00
O362   O     0.94061   0.61180   0.99300   0.00000  Uiso   1.00
N363   N     0.11471   0.49771   0.13590   0.00000  Uiso   1.00
N364   N     0.68193   0.68495   0.16260   0.00000  Uiso   1.00
N365   N     0.90471   0.57869   0.81215   0.00000  Uiso   1.00
N366   N     0.18307   0.57073   0.14114   0.00000  Uiso   1.00
N367   N     0.75029   0.75797   0.16783   0.00000  Uiso   1.00
N368   N     0.97306   0.65171   0.81739   0.00000  Uiso   1.00
