data_job_05228
_audit_creation_date              2018-12-19
_audit_creation_method            'Materials Studio'
_symmetry_space_group_name_H-M    'P1'
_symmetry_Int_Tables_number       1
_symmetry_cell_setting            triclinic
loop_
_symmetry_equiv_pos_as_xyz
  x,y,z
_cell_length_a                    14.1251
_cell_length_b                    11.1334
_cell_length_c                    15.5614
_cell_angle_alpha                 90.0000
_cell_angle_beta                  117.0889
_cell_angle_gamma                 90.0000
loop_
_atom_site_label
_atom_site_type_symbol
_atom_site_fract_x
_atom_site_fract_y
_atom_site_fract_z
_atom_site_U_iso_or_equiv
_atom_site_adp_type
_atom_site_occupancy
C1     C     0.63834   0.16960   0.21702   0.00000  Uiso   1.00
C2     C     0.70951   0.20090   0.32256   0.00000  Uiso   1.00
C3     C     0.67978   0.26848   0.38125   0.00000  Uiso   1.00
C4     C     0.75648   0.28711   0.47572   0.00000  Uiso   1.00
C5     C     0.85138   0.34294   0.63434   0.00000  Uiso   1.00
C6     C     0.69610   0.21529   0.16117   0.00000  Uiso   1.00
C7     C     0.65510   0.29496   0.08417   0.00000  Uiso   1.00
C8     C     0.72052   0.32569   0.04278   0.00000  Uiso   1.00
C9     C     0.79457   0.40381   0.95080   0.00000  Uiso   1.00
C10    C     0.63900   0.03295   0.21079   0.00000  Uiso   1.00
C11    C     0.54999   0.95929   0.17547   0.00000  Uiso   1.00
C12    C     0.56734   0.83650   0.17584   0.00000  Uiso   1.00
C13    C     0.55273   0.63150   0.16089   0.00000  Uiso   1.00
C14    C     0.82743   0.08250   0.28043   0.00000  Uiso   1.00
C15    C     0.81221   0.15359   0.35700   0.00000  Uiso   1.00
C16    C     0.88898   0.17211   0.45141   0.00000  Uiso   1.00
C17    C     0.85937   0.23970   0.51023   0.00000  Uiso   1.00
C18    C     0.79881   0.16798   0.19561   0.00000  Uiso   1.00
C19    C     0.86430   0.19859   0.15433   0.00000  Uiso   1.00
C20    C     0.82341   0.27830   0.07729   0.00000  Uiso   1.00
C21    C     0.74171   0.98563   0.24523   0.00000  Uiso   1.00
C22    C     0.75920   0.86293   0.24564   0.00000  Uiso   1.00
C23    C     0.67023   0.78910   0.21034   0.00000  Uiso   1.00
H24    H     0.55838   0.20644   0.19020   0.00000  Uiso   1.00
H25    H     0.60029   0.30509   0.35456   0.00000  Uiso   1.00
H26    H     0.57561   0.33155   0.05752   0.00000  Uiso   1.00
H27    H     0.47052   0.99594   0.14882   0.00000  Uiso   1.00
H28    H     0.69206   0.39362   0.55197   0.00000  Uiso   1.00
H29    H     0.64000   0.44940   0.92562   0.00000  Uiso   1.00
H30    H     0.41840   0.74169   0.11814   0.00000  Uiso   1.00
H31    H     0.90740   0.04567   0.30725   0.00000  Uiso   1.00
H32    H     0.96846   0.13549   0.47804   0.00000  Uiso   1.00
H33    H     0.94377   0.16196   0.18100   0.00000  Uiso   1.00
H34    H     0.83869   0.82635   0.27230   0.00000  Uiso   1.00
H35    H     0.99088   0.25598   0.65219   0.00000  Uiso   1.00
H36    H     0.93882   0.31175   0.02584   0.00000  Uiso   1.00
H37    H     0.71722   0.60405   0.21836   0.00000  Uiso   1.00
O38    O     0.87535   0.38682   0.71231   0.00000  Uiso   1.00
O39    O     0.80704   0.45998   0.89056   0.00000  Uiso   1.00
O40    O     0.51631   0.53149   0.14314   0.00000  Uiso   1.00
N41    N     0.75400   0.34888   0.55212   0.00000  Uiso   1.00
N42    N     0.70534   0.40105   0.96654   0.00000  Uiso   1.00
N43    N     0.49816   0.73940   0.14650   0.00000  Uiso   1.00
N44    N     0.91479   0.27481   0.60605   0.00000  Uiso   1.00
N45    N     0.86613   0.32698   0.02046   0.00000  Uiso   1.00
N46    N     0.65895   0.66533   0.20043   0.00000  Uiso   1.00
C47    C     0.36166   0.16960   0.28298   0.00000  Uiso   1.00
C48    C     0.29049   0.20090   0.17744   0.00000  Uiso   1.00
C49    C     0.32022   0.26848   0.11875   0.00000  Uiso   1.00
C50    C     0.24352   0.28711   0.02428   0.00000  Uiso   1.00
C51    C     0.14862   0.34294   0.86566   0.00000  Uiso   1.00
C52    C     0.30390   0.21529   0.33883   0.00000  Uiso   1.00
C53    C     0.34490   0.29496   0.41583   0.00000  Uiso   1.00
C54    C     0.27948   0.32569   0.45722   0.00000  Uiso   1.00
C55    C     0.20543   0.40381   0.54920   0.00000  Uiso   1.00
C56    C     0.36100   0.03295   0.28921   0.00000  Uiso   1.00
C57    C     0.45001   0.95929   0.32453   0.00000  Uiso   1.00
C58    C     0.43266   0.83650   0.32416   0.00000  Uiso   1.00
C59    C     0.44727   0.63150   0.33911   0.00000  Uiso   1.00
C60    C     0.17257   0.08250   0.21957   0.00000  Uiso   1.00
C61    C     0.18779   0.15359   0.14300   0.00000  Uiso   1.00
C62    C     0.11102   0.17211   0.04859   0.00000  Uiso   1.00
C63    C     0.14063   0.23970   0.98977   0.00000  Uiso   1.00
C64    C     0.20119   0.16798   0.30439   0.00000  Uiso   1.00
C65    C     0.13570   0.19859   0.34567   0.00000  Uiso   1.00
C66    C     0.17659   0.27830   0.42271   0.00000  Uiso   1.00
C67    C     0.25829   0.98563   0.25477   0.00000  Uiso   1.00
C68    C     0.24080   0.86293   0.25436   0.00000  Uiso   1.00
C69    C     0.32977   0.78910   0.28966   0.00000  Uiso   1.00
H70    H     0.44162   0.20644   0.30980   0.00000  Uiso   1.00
H71    H     0.39971   0.30509   0.14544   0.00000  Uiso   1.00
H72    H     0.42439   0.33155   0.44248   0.00000  Uiso   1.00
H73    H     0.52948   0.99594   0.35118   0.00000  Uiso   1.00
H74    H     0.30794   0.39362   0.94803   0.00000  Uiso   1.00
H75    H     0.36000   0.44940   0.57438   0.00000  Uiso   1.00
H76    H     0.58160   0.74169   0.38186   0.00000  Uiso   1.00
H77    H     0.09260   0.04567   0.19275   0.00000  Uiso   1.00
H78    H     0.03154   0.13549   0.02196   0.00000  Uiso   1.00
H79    H     0.05623   0.16196   0.31900   0.00000  Uiso   1.00
H80    H     0.16131   0.82635   0.22770   0.00000  Uiso   1.00
H81    H     0.00912   0.25598   0.84781   0.00000  Uiso   1.00
H82    H     0.06118   0.31175   0.47416   0.00000  Uiso   1.00
H83    H     0.28278   0.60405   0.28164   0.00000  Uiso   1.00
O84    O     0.12465   0.38682   0.78769   0.00000  Uiso   1.00
O85    O     0.19296   0.45998   0.60944   0.00000  Uiso   1.00
O86    O     0.48369   0.53149   0.35686   0.00000  Uiso   1.00
N87    N     0.24600   0.34888   0.94788   0.00000  Uiso   1.00
N88    N     0.29466   0.40105   0.53346   0.00000  Uiso   1.00
N89    N     0.50184   0.73940   0.35350   0.00000  Uiso   1.00
N90    N     0.08521   0.27481   0.89395   0.00000  Uiso   1.00
N91    N     0.13387   0.32698   0.47954   0.00000  Uiso   1.00
N92    N     0.34105   0.66533   0.29957   0.00000  Uiso   1.00
C93    C     0.36166   0.83040   0.78298   0.00000  Uiso   1.00
C94    C     0.29049   0.79910   0.67744   0.00000  Uiso   1.00
C95    C     0.32022   0.73152   0.61875   0.00000  Uiso   1.00
C96    C     0.24352   0.71289   0.52428   0.00000  Uiso   1.00
C97    C     0.14862   0.65706   0.36566   0.00000  Uiso   1.00
C98    C     0.30390   0.78471   0.83883   0.00000  Uiso   1.00
C99    C     0.34490   0.70504   0.91583   0.00000  Uiso   1.00
C100   C     0.27948   0.67431   0.95722   0.00000  Uiso   1.00
C101   C     0.20543   0.59619   0.04920   0.00000  Uiso   1.00
C102   C     0.36100   0.96705   0.78921   0.00000  Uiso   1.00
C103   C     0.45001   0.04071   0.82453   0.00000  Uiso   1.00
C104   C     0.43266   0.16350   0.82416   0.00000  Uiso   1.00
C105   C     0.44727   0.36850   0.83911   0.00000  Uiso   1.00
C106   C     0.17257   0.91750   0.71957   0.00000  Uiso   1.00
C107   C     0.18779   0.84641   0.64300   0.00000  Uiso   1.00
C108   C     0.11102   0.82789   0.54859   0.00000  Uiso   1.00
C109   C     0.14063   0.76030   0.48977   0.00000  Uiso   1.00
C110   C     0.20119   0.83202   0.80439   0.00000  Uiso   1.00
C111   C     0.13570   0.80141   0.84567   0.00000  Uiso   1.00
C112   C     0.17659   0.72170   0.92271   0.00000  Uiso   1.00
C113   C     0.25829   0.01437   0.75477   0.00000  Uiso   1.00
C114   C     0.24080   0.13707   0.75436   0.00000  Uiso   1.00
C115   C     0.32977   0.21090   0.78966   0.00000  Uiso   1.00
H116   H     0.44162   0.79356   0.80980   0.00000  Uiso   1.00
H117   H     0.39971   0.69491   0.64544   0.00000  Uiso   1.00
H118   H     0.42439   0.66845   0.94248   0.00000  Uiso   1.00
H119   H     0.52948   0.00406   0.85118   0.00000  Uiso   1.00
H120   H     0.30794   0.60638   0.44803   0.00000  Uiso   1.00
H121   H     0.36000   0.55060   0.07438   0.00000  Uiso   1.00
H122   H     0.58160   0.25831   0.88186   0.00000  Uiso   1.00
H123   H     0.09260   0.95433   0.69275   0.00000  Uiso   1.00
H124   H     0.03154   0.86451   0.52196   0.00000  Uiso   1.00
H125   H     0.05623   0.83804   0.81900   0.00000  Uiso   1.00
H126   H     0.16131   0.17365   0.72770   0.00000  Uiso   1.00
H127   H     0.00912   0.74402   0.34781   0.00000  Uiso   1.00
H128   H     0.06118   0.68825   0.97416   0.00000  Uiso   1.00
H129   H     0.28278   0.39595   0.78164   0.00000  Uiso   1.00
O130   O     0.12465   0.61318   0.28769   0.00000  Uiso   1.00
O131   O     0.19296   0.54002   0.10944   0.00000  Uiso   1.00
O132   O     0.48369   0.46851   0.85686   0.00000  Uiso   1.00
N133   N     0.24600   0.65112   0.44788   0.00000  Uiso   1.00
N134   N     0.29466   0.59895   0.03346   0.00000  Uiso   1.00
N135   N     0.50184   0.26060   0.85350   0.00000  Uiso   1.00
N136   N     0.08521   0.72519   0.39395   0.00000  Uiso   1.00
N137   N     0.13387   0.67302   0.97954   0.00000  Uiso   1.00
N138   N     0.34105   0.33467   0.79957   0.00000  Uiso   1.00
C139   C     0.63834   0.83040   0.71702   0.00000  Uiso   1.00
C140   C     0.70951   0.79910   0.82256   0.00000  Uiso   1.00
C141   C     0.67978   0.73152   0.88125   0.00000  Uiso   1.00
C142   C     0.75648   0.71289   0.97572   0.00000  Uiso   1.00
C143   C     0.85138   0.65706   0.13434   0.00000  Uiso   1.00
C144   C     0.69610   0.78471   0.66117   0.00000  Uiso   1.00
C145   C     0.65510   0.70504   0.58417   0.00000  Uiso   1.00
C146   C     0.72052   0.67431   0.54278   0.00000  Uiso   1.00
C147   C     0.79457   0.59619   0.45080   0.00000  Uiso   1.00
C148   C     0.63900   0.96705   0.71079   0.00000  Uiso   1.00
C149   C     0.54999   0.04071   0.67547   0.00000  Uiso   1.00
C150   C     0.56734   0.16350   0.67584   0.00000  Uiso   1.00
C151   C     0.55273   0.36850   0.66089   0.00000  Uiso   1.00
C152   C     0.82743   0.91750   0.78043   0.00000  Uiso   1.00
C153   C     0.81221   0.84641   0.85700   0.00000  Uiso   1.00
C154   C     0.88898   0.82789   0.95141   0.00000  Uiso   1.00
C155   C     0.85937   0.76030   0.01023   0.00000  Uiso   1.00
C156   C     0.79881   0.83202   0.69561   0.00000  Uiso   1.00
C157   C     0.86430   0.80141   0.65433   0.00000  Uiso   1.00
C158   C     0.82341   0.72170   0.57729   0.00000  Uiso   1.00
C159   C     0.74171   0.01437   0.74523   0.00000  Uiso   1.00
C160   C     0.75920   0.13707   0.74564   0.00000  Uiso   1.00
C161   C     0.67023   0.21090   0.71034   0.00000  Uiso   1.00
H162   H     0.55838   0.79356   0.69020   0.00000  Uiso   1.00
H163   H     0.60029   0.69491   0.85456   0.00000  Uiso   1.00
H164   H     0.57561   0.66845   0.55752   0.00000  Uiso   1.00
H165   H     0.47052   0.00406   0.64882   0.00000  Uiso   1.00
H166   H     0.69206   0.60638   0.05197   0.00000  Uiso   1.00
H167   H     0.64000   0.55060   0.42562   0.00000  Uiso   1.00
H168   H     0.41840   0.25831   0.61814   0.00000  Uiso   1.00
H169   H     0.90740   0.95433   0.80725   0.00000  Uiso   1.00
H170   H     0.96846   0.86451   0.97804   0.00000  Uiso   1.00
H171   H     0.94377   0.83804   0.68100   0.00000  Uiso   1.00
H172   H     0.83869   0.17365   0.77230   0.00000  Uiso   1.00
H173   H     0.99088   0.74402   0.15219   0.00000  Uiso   1.00
H174   H     0.93882   0.68825   0.52584   0.00000  Uiso   1.00
H175   H     0.71722   0.39595   0.71836   0.00000  Uiso   1.00
O176   O     0.87535   0.61318   0.21231   0.00000  Uiso   1.00
O177   O     0.80704   0.54002   0.39056   0.00000  Uiso   1.00
O178   O     0.51631   0.46851   0.64314   0.00000  Uiso   1.00
N179   N     0.75400   0.65112   0.05212   0.00000  Uiso   1.00
N180   N     0.70534   0.59895   0.46654   0.00000  Uiso   1.00
N181   N     0.49816   0.26060   0.64650   0.00000  Uiso   1.00
N182   N     0.91479   0.72519   0.10605   0.00000  Uiso   1.00
N183   N     0.86613   0.67302   0.52046   0.00000  Uiso   1.00
N184   N     0.65895   0.33467   0.70043   0.00000  Uiso   1.00
