data_job_06182
_audit_creation_date              2018-12-19
_audit_creation_method            'Materials Studio'
_symmetry_space_group_name_H-M    'P1'
_symmetry_Int_Tables_number       1
_symmetry_cell_setting            triclinic
loop_
_symmetry_equiv_pos_as_xyz
  x,y,z
_cell_length_a                    16.7510
_cell_length_b                    16.9839
_cell_length_c                    17.2155
_cell_angle_alpha                 101.1620
_cell_angle_beta                  99.7766
_cell_angle_gamma                 98.5375
loop_
_atom_site_label
_atom_site_type_symbol
_atom_site_fract_x
_atom_site_fract_y
_atom_site_fract_z
_atom_site_U_iso_or_equiv
_atom_site_adp_type
_atom_site_occupancy
C1     C     0.24237   0.73294   0.57560   0.00000  Uiso   1.00
C2     C     0.15784   0.75706   0.56150   0.00000  Uiso   1.00
C3     C     0.14230   0.83134   0.54657   0.00000  Uiso   1.00
C4     C     0.06072   0.84151   0.53526   0.00000  Uiso   1.00
C5     C     0.93915   0.88836   0.51279   0.00000  Uiso   1.00
C6     C     0.23579   0.65443   0.51250   0.00000  Uiso   1.00
C7     C     0.28579   0.64242   0.45637   0.00000  Uiso   1.00
C8     C     0.26984   0.56619   0.40381   0.00000  Uiso   1.00
C9     C     0.26933   0.45369   0.30530   0.00000  Uiso   1.00
C10    C     0.25314   0.70920   0.65724   0.00000  Uiso   1.00
C11    C     0.31775   0.74322   0.72280   0.00000  Uiso   1.00
C12    C     0.31641   0.71309   0.79211   0.00000  Uiso   1.00
C13    C     0.34284   0.68563   0.91833   0.00000  Uiso   1.00
C14    C     0.12515   0.61891   0.58208   0.00000  Uiso   1.00
C15    C     0.09417   0.69512   0.56502   0.00000  Uiso   1.00
C16    C     0.01260   0.70518   0.55373   0.00000  Uiso   1.00
C17    C     0.99694   0.77946   0.53879   0.00000  Uiso   1.00
C18    C     0.17212   0.59249   0.51601   0.00000  Uiso   1.00
C19    C     0.15610   0.51626   0.46353   0.00000  Uiso   1.00
C20    C     0.20606   0.50414   0.40734   0.00000  Uiso   1.00
C21    C     0.18947   0.64726   0.66076   0.00000  Uiso   1.00
C22    C     0.18804   0.61707   0.72997   0.00000  Uiso   1.00
C23    C     0.25263   0.65104   0.79563   0.00000  Uiso   1.00
H24    H     0.29194   0.78116   0.57286   0.00000  Uiso   1.00
H25    H     0.19159   0.87925   0.54384   0.00000  Uiso   1.00
H26    H     0.33507   0.69036   0.45366   0.00000  Uiso   1.00
H27    H     0.36701   0.79115   0.72006   0.00000  Uiso   1.00
H28    H     0.05224   0.96068   0.51320   0.00000  Uiso   1.00
H29    H     0.35480   0.56238   0.32306   0.00000  Uiso   1.00
H30    H     0.42215   0.77492   0.88481   0.00000  Uiso   1.00
H31    H     0.07557   0.57069   0.58482   0.00000  Uiso   1.00
H32    H     0.96334   0.65724   0.55646   0.00000  Uiso   1.00
H33    H     0.10682   0.46835   0.46628   0.00000  Uiso   1.00
H34    H     0.13876   0.56914   0.73267   0.00000  Uiso   1.00
H35    H     0.86699   0.78049   0.52343   0.00000  Uiso   1.00
H36    H     0.16955   0.38219   0.33330   0.00000  Uiso   1.00
H37    H     0.23690   0.59472   0.89504   0.00000  Uiso   1.00
O38    O     0.88969   0.93130   0.49942   0.00000  Uiso   1.00
O39    O     0.28664   0.40875   0.24998   0.00000  Uiso   1.00
O40    O     0.37500   0.68760   0.98698   0.00000  Uiso   1.00
N41    N     0.02405   0.90640   0.51951   0.00000  Uiso   1.00
N42    N     0.30691   0.53402   0.34174   0.00000  Uiso   1.00
N43    N     0.36989   0.73271   0.86692   0.00000  Uiso   1.00
N44    N     0.92436   0.80944   0.52502   0.00000  Uiso   1.00
N45    N     0.20723   0.43706   0.34725   0.00000  Uiso   1.00
N46    N     0.27021   0.63575   0.87243   0.00000  Uiso   1.00
C47    C     0.59234   0.24521   0.75193   0.00000  Uiso   1.00
C48    C     0.57213   0.16225   0.77283   0.00000  Uiso   1.00
C49    C     0.56039   0.14948   0.84763   0.00000  Uiso   1.00
C50    C     0.54239   0.06895   0.85449   0.00000  Uiso   1.00
C51    C     0.51190   0.95007   0.89692   0.00000  Uiso   1.00
C52    C     0.52527   0.24525   0.67995   0.00000  Uiso   1.00
C53    C     0.47413   0.30228   0.67667   0.00000  Uiso   1.00
C54    C     0.41668   0.29163   0.60534   0.00000  Uiso   1.00
C55    C     0.31347   0.30166   0.50355   0.00000  Uiso   1.00
C56    C     0.67199   0.24569   0.72019   0.00000  Uiso   1.00
C57    C     0.74422   0.30310   0.75072   0.00000  Uiso   1.00
C58    C     0.81030   0.29282   0.71325   0.00000  Uiso   1.00
C59    C     0.93490   0.30352   0.67394   0.00000  Uiso   1.00
C60    C     0.58124   0.12491   0.63108   0.00000  Uiso   1.00
C61    C     0.56611   0.09690   0.70718   0.00000  Uiso   1.00
C62    C     0.54812   0.01637   0.71393   0.00000  Uiso   1.00
C63    C     0.53635   0.00348   0.78874   0.00000  Uiso   1.00
C64    C     0.51924   0.17991   0.61431   0.00000  Uiso   1.00
C65    C     0.46186   0.16918   0.54297   0.00000  Uiso   1.00
C66    C     0.41064   0.22617   0.53958   0.00000  Uiso   1.00
C67    C     0.66597   0.18034   0.65455   0.00000  Uiso   1.00
C68    C     0.73195   0.16999   0.61702   0.00000  Uiso   1.00
C69    C     0.80426   0.22736   0.64750   0.00000  Uiso   1.00
H70    H     0.59702   0.29608   0.80302   0.00000  Uiso   1.00
H71    H     0.56505   0.20006   0.89842   0.00000  Uiso   1.00
H72    H     0.47881   0.35285   0.72747   0.00000  Uiso   1.00
H73    H     0.74886   0.35365   0.80152   0.00000  Uiso   1.00
H74    H     0.52692   0.06478   0.97522   0.00000  Uiso   1.00
H75    H     0.34510   0.38696   0.61476   0.00000  Uiso   1.00
H76    H     0.91455   0.38866   0.77090   0.00000  Uiso   1.00
H77    H     0.57655   0.07403   0.57997   0.00000  Uiso   1.00
H78    H     0.54346   0.96582   0.66313   0.00000  Uiso   1.00
H79    H     0.45721   0.11861   0.49218   0.00000  Uiso   1.00
H80    H     0.72726   0.11941   0.56623   0.00000  Uiso   1.00
H81    H     0.50939   0.87467   0.78425   0.00000  Uiso   1.00
H82    H     0.32757   0.19684   0.42379   0.00000  Uiso   1.00
H83    H     0.89701   0.19854   0.57993   0.00000  Uiso   1.00
O84    O     0.49673   0.90255   0.93845   0.00000  Uiso   1.00
O85    O     0.25819   0.32523   0.46555   0.00000  Uiso   1.00
O86    O     0.00530   0.32747   0.67040   0.00000  Uiso   1.00
N87    N     0.52736   0.03489   0.91887   0.00000  Uiso   1.00
N88    N     0.35735   0.33610   0.58187   0.00000  Uiso   1.00
N89    N     0.88973   0.33770   0.72783   0.00000  Uiso   1.00
N90    N     0.51792   0.93259   0.81611   0.00000  Uiso   1.00
N91    N     0.34792   0.23380   0.47911   0.00000  Uiso   1.00
N92    N     0.88030   0.23540   0.62507   0.00000  Uiso   1.00
C93    C     0.76197   0.60625   0.25135   0.00000  Uiso   1.00
C94    C     0.77576   0.58220   0.16529   0.00000  Uiso   1.00
C95    C     0.84730   0.56103   0.14398   0.00000  Uiso   1.00
C96    C     0.84767   0.54095   0.06195   0.00000  Uiso   1.00
C97    C     0.87953   0.50341   0.93722   0.00000  Uiso   1.00
C98    C     0.68522   0.54762   0.25534   0.00000  Uiso   1.00
C99    C     0.68062   0.49738   0.30975   0.00000  Uiso   1.00
C100   C     0.60476   0.44820   0.30353   0.00000  Uiso   1.00
C101   C     0.49603   0.35701   0.31865   0.00000  Uiso   1.00
C102   C     0.73821   0.69028   0.25957   0.00000  Uiso   1.00
C103   C     0.77815   0.75999   0.31755   0.00000  Uiso   1.00
C104   C     0.74689   0.83092   0.31491   0.00000  Uiso   1.00
C105   C     0.72044   0.96124   0.33659   0.00000  Uiso   1.00
C106   C     0.63543   0.60826   0.14357   0.00000  Uiso   1.00
C107   C     0.70703   0.58330   0.10675   0.00000  Uiso   1.00
C108   C     0.70729   0.56325   0.02473   0.00000  Uiso   1.00
C109   C     0.77881   0.54205   0.00330   0.00000  Uiso   1.00
C110   C     0.61649   0.54871   0.19680   0.00000  Uiso   1.00
C111   C     0.54062   0.49960   0.19050   0.00000  Uiso   1.00
C112   C     0.53591   0.44929   0.24489   0.00000  Uiso   1.00
C113   C     0.66947   0.69138   0.20103   0.00000  Uiso   1.00
C114   C     0.63815   0.76221   0.19830   0.00000  Uiso   1.00
C115   C     0.67804   0.83201   0.25626   0.00000  Uiso   1.00
H116   H     0.81548   0.60539   0.29693   0.00000  Uiso   1.00
H117   H     0.90047   0.56018   0.18930   0.00000  Uiso   1.00
H118   H     0.73382   0.49655   0.35505   0.00000  Uiso   1.00
H119   H     0.83134   0.75912   0.36285   0.00000  Uiso   1.00
H120   H     0.96438   0.51051   0.04416   0.00000  Uiso   1.00
H121   H     0.61298   0.37636   0.39367   0.00000  Uiso   1.00
H122   H     0.81861   0.93004   0.41011   0.00000  Uiso   1.00
H123   H     0.58191   0.60911   0.09799   0.00000  Uiso   1.00
H124   H     0.65409   0.56410   0.97944   0.00000  Uiso   1.00
H125   H     0.48744   0.50047   0.14519   0.00000  Uiso   1.00
H126   H     0.58496   0.76304   0.15299   0.00000  Uiso   1.00
H127   H     0.76441   0.51369   0.87383   0.00000  Uiso   1.00
H128   H     0.41300   0.37954   0.22334   0.00000  Uiso   1.00
H129   H     0.61864   0.93322   0.23978   0.00000  Uiso   1.00
O130   O     0.91608   0.48240   0.88459   0.00000  Uiso   1.00
O131   O     0.45505   0.30641   0.34315   0.00000  Uiso   1.00
O132   O     0.72484   0.03282   0.36471   0.00000  Uiso   1.00
N133   N     0.90742   0.51745   0.02034   0.00000  Uiso   1.00
N134   N     0.57888   0.39201   0.34710   0.00000  Uiso   1.00
N135   N     0.77112   0.90966   0.36249   0.00000  Uiso   1.00
N136   N     0.79982   0.51916   0.92868   0.00000  Uiso   1.00
N137   N     0.47128   0.39373   0.25545   0.00000  Uiso   1.00
N138   N     0.66351   0.91137   0.27083   0.00000  Uiso   1.00
C139   C     0.75763   0.26706   0.42440   0.00000  Uiso   1.00
C140   C     0.84216   0.24294   0.43850   0.00000  Uiso   1.00
C141   C     0.85770   0.16866   0.45343   0.00000  Uiso   1.00
C142   C     0.93928   0.15849   0.46474   0.00000  Uiso   1.00
C143   C     0.06085   0.11164   0.48721   0.00000  Uiso   1.00
C144   C     0.76421   0.34557   0.48750   0.00000  Uiso   1.00
C145   C     0.71421   0.35758   0.54363   0.00000  Uiso   1.00
C146   C     0.73016   0.43381   0.59619   0.00000  Uiso   1.00
C147   C     0.73067   0.54631   0.69470   0.00000  Uiso   1.00
C148   C     0.74686   0.29080   0.34276   0.00000  Uiso   1.00
C149   C     0.68225   0.25678   0.27720   0.00000  Uiso   1.00
C150   C     0.68359   0.28691   0.20789   0.00000  Uiso   1.00
C151   C     0.65716   0.31437   0.08167   0.00000  Uiso   1.00
C152   C     0.87485   0.38109   0.41792   0.00000  Uiso   1.00
C153   C     0.90583   0.30488   0.43498   0.00000  Uiso   1.00
C154   C     0.98740   0.29482   0.44627   0.00000  Uiso   1.00
C155   C     0.00306   0.22054   0.46121   0.00000  Uiso   1.00
C156   C     0.82788   0.40751   0.48399   0.00000  Uiso   1.00
C157   C     0.84390   0.48374   0.53647   0.00000  Uiso   1.00
C158   C     0.79394   0.49586   0.59266   0.00000  Uiso   1.00
C159   C     0.81053   0.35274   0.33924   0.00000  Uiso   1.00
C160   C     0.81196   0.38293   0.27003   0.00000  Uiso   1.00
C161   C     0.74737   0.34896   0.20437   0.00000  Uiso   1.00
H162   H     0.70806   0.21884   0.42714   0.00000  Uiso   1.00
H163   H     0.80841   0.12075   0.45616   0.00000  Uiso   1.00
H164   H     0.66493   0.30964   0.54634   0.00000  Uiso   1.00
H165   H     0.63299   0.20885   0.27994   0.00000  Uiso   1.00
H166   H     0.94776   0.03932   0.48680   0.00000  Uiso   1.00
H167   H     0.64520   0.43762   0.67694   0.00000  Uiso   1.00
H168   H     0.57785   0.22508   0.11519   0.00000  Uiso   1.00
H169   H     0.92443   0.42931   0.41518   0.00000  Uiso   1.00
H170   H     0.03666   0.34276   0.44354   0.00000  Uiso   1.00
H171   H     0.89318   0.53165   0.53372   0.00000  Uiso   1.00
H172   H     0.86124   0.43086   0.26733   0.00000  Uiso   1.00
H173   H     0.13301   0.21951   0.47657   0.00000  Uiso   1.00
H174   H     0.83045   0.61781   0.66670   0.00000  Uiso   1.00
H175   H     0.76310   0.40528   0.10496   0.00000  Uiso   1.00
O176   O     0.11031   0.06870   0.50058   0.00000  Uiso   1.00
O177   O     0.71336   0.59125   0.75002   0.00000  Uiso   1.00
O178   O     0.62500   0.31240   0.01302   0.00000  Uiso   1.00
N179   N     0.97595   0.09360   0.48049   0.00000  Uiso   1.00
N180   N     0.69309   0.46598   0.65826   0.00000  Uiso   1.00
N181   N     0.63011   0.26729   0.13308   0.00000  Uiso   1.00
N182   N     0.07564   0.19056   0.47498   0.00000  Uiso   1.00
N183   N     0.79277   0.56294   0.65275   0.00000  Uiso   1.00
N184   N     0.72979   0.36425   0.12757   0.00000  Uiso   1.00
C185   C     0.40766   0.75479   0.24807   0.00000  Uiso   1.00
C186   C     0.42787   0.83775   0.22717   0.00000  Uiso   1.00
C187   C     0.43961   0.85053   0.15237   0.00000  Uiso   1.00
C188   C     0.45761   0.93105   0.14551   0.00000  Uiso   1.00
C189   C     0.48810   0.04993   0.10308   0.00000  Uiso   1.00
C190   C     0.47473   0.75475   0.32005   0.00000  Uiso   1.00
C191   C     0.52587   0.69772   0.32333   0.00000  Uiso   1.00
C192   C     0.58332   0.70837   0.39466   0.00000  Uiso   1.00
C193   C     0.68653   0.69834   0.49645   0.00000  Uiso   1.00
C194   C     0.32801   0.75431   0.27981   0.00000  Uiso   1.00
C195   C     0.25578   0.69691   0.24928   0.00000  Uiso   1.00
C196   C     0.18970   0.70718   0.28675   0.00000  Uiso   1.00
C197   C     0.06510   0.69648   0.32606   0.00000  Uiso   1.00
C198   C     0.41876   0.87509   0.36892   0.00000  Uiso   1.00
C199   C     0.43389   0.90310   0.29282   0.00000  Uiso   1.00
C200   C     0.45188   0.98363   0.28607   0.00000  Uiso   1.00
C201   C     0.46365   0.99652   0.21126   0.00000  Uiso   1.00
C202   C     0.48076   0.82009   0.38569   0.00000  Uiso   1.00
C203   C     0.53814   0.83082   0.45703   0.00000  Uiso   1.00
C204   C     0.58936   0.77383   0.46042   0.00000  Uiso   1.00
C205   C     0.33403   0.81966   0.34545   0.00000  Uiso   1.00
C206   C     0.26805   0.83001   0.38298   0.00000  Uiso   1.00
C207   C     0.19574   0.77264   0.35250   0.00000  Uiso   1.00
H208   H     0.40298   0.70392   0.19698   0.00000  Uiso   1.00
H209   H     0.43495   0.79994   0.10158   0.00000  Uiso   1.00
H210   H     0.52119   0.64715   0.27253   0.00000  Uiso   1.00
H211   H     0.25114   0.64635   0.19848   0.00000  Uiso   1.00
H212   H     0.47308   0.93522   0.02478   0.00000  Uiso   1.00
H213   H     0.65490   0.61305   0.38524   0.00000  Uiso   1.00
H214   H     0.08545   0.61134   0.22910   0.00000  Uiso   1.00
H215   H     0.42345   0.92597   0.42003   0.00000  Uiso   1.00
H216   H     0.45654   0.03418   0.33687   0.00000  Uiso   1.00
H217   H     0.54279   0.88139   0.50782   0.00000  Uiso   1.00
H218   H     0.27274   0.88059   0.43377   0.00000  Uiso   1.00
H219   H     0.49061   0.12533   0.21575   0.00000  Uiso   1.00
H220   H     0.67243   0.80316   0.57621   0.00000  Uiso   1.00
H221   H     0.10299   0.80146   0.42007   0.00000  Uiso   1.00
O222   O     0.50327   0.09745   0.06155   0.00000  Uiso   1.00
O223   O     0.74181   0.67477   0.53445   0.00000  Uiso   1.00
O224   O     0.99470   0.67253   0.32960   0.00000  Uiso   1.00
N225   N     0.47264   0.96511   0.08113   0.00000  Uiso   1.00
N226   N     0.64265   0.66390   0.41813   0.00000  Uiso   1.00
N227   N     0.11027   0.66230   0.27217   0.00000  Uiso   1.00
N228   N     0.48208   0.06741   0.18389   0.00000  Uiso   1.00
N229   N     0.65208   0.76621   0.52089   0.00000  Uiso   1.00
N230   N     0.11970   0.76460   0.37493   0.00000  Uiso   1.00
C231   C     0.23803   0.39375   0.74865   0.00000  Uiso   1.00
C232   C     0.22424   0.41780   0.83471   0.00000  Uiso   1.00
C233   C     0.15270   0.43897   0.85602   0.00000  Uiso   1.00
C234   C     0.15233   0.45905   0.93805   0.00000  Uiso   1.00
C235   C     0.12047   0.49659   0.06278   0.00000  Uiso   1.00
C236   C     0.31478   0.45238   0.74466   0.00000  Uiso   1.00
C237   C     0.31938   0.50262   0.69025   0.00000  Uiso   1.00
C238   C     0.39524   0.55180   0.69647   0.00000  Uiso   1.00
C239   C     0.50397   0.64299   0.68135   0.00000  Uiso   1.00
C240   C     0.26179   0.30972   0.74043   0.00000  Uiso   1.00
C241   C     0.22185   0.24001   0.68245   0.00000  Uiso   1.00
C242   C     0.25311   0.16908   0.68509   0.00000  Uiso   1.00
C243   C     0.27956   0.03876   0.66341   0.00000  Uiso   1.00
C244   C     0.36457   0.39174   0.85643   0.00000  Uiso   1.00
C245   C     0.29297   0.41670   0.89325   0.00000  Uiso   1.00
C246   C     0.29271   0.43675   0.97527   0.00000  Uiso   1.00
C247   C     0.22119   0.45795   0.99670   0.00000  Uiso   1.00
C248   C     0.38351   0.45129   0.80320   0.00000  Uiso   1.00
C249   C     0.45938   0.50040   0.80950   0.00000  Uiso   1.00
C250   C     0.46409   0.55071   0.75511   0.00000  Uiso   1.00
C251   C     0.33053   0.30862   0.79897   0.00000  Uiso   1.00
C252   C     0.36185   0.23779   0.80170   0.00000  Uiso   1.00
C253   C     0.32196   0.16799   0.74374   0.00000  Uiso   1.00
H254   H     0.18452   0.39461   0.70307   0.00000  Uiso   1.00
H255   H     0.09953   0.43982   0.81070   0.00000  Uiso   1.00
H256   H     0.26618   0.50345   0.64495   0.00000  Uiso   1.00
H257   H     0.16866   0.24088   0.63715   0.00000  Uiso   1.00
H258   H     0.03562   0.48949   0.95584   0.00000  Uiso   1.00
H259   H     0.38702   0.62365   0.60633   0.00000  Uiso   1.00
H260   H     0.18139   0.06996   0.58989   0.00000  Uiso   1.00
H261   H     0.41809   0.39089   0.90201   0.00000  Uiso   1.00
H262   H     0.34591   0.43590   0.02056   0.00000  Uiso   1.00
H263   H     0.51256   0.49953   0.85481   0.00000  Uiso   1.00
H264   H     0.41504   0.23696   0.84701   0.00000  Uiso   1.00
H265   H     0.23559   0.48631   0.12617   0.00000  Uiso   1.00
H266   H     0.58700   0.62046   0.77666   0.00000  Uiso   1.00
H267   H     0.38136   0.06678   0.76022   0.00000  Uiso   1.00
O268   O     0.08392   0.51760   0.11541   0.00000  Uiso   1.00
O269   O     0.54495   0.69359   0.65685   0.00000  Uiso   1.00
O270   O     0.27516   0.96718   0.63529   0.00000  Uiso   1.00
N271   N     0.09258   0.48255   0.97966   0.00000  Uiso   1.00
N272   N     0.42112   0.60799   0.65290   0.00000  Uiso   1.00
N273   N     0.22888   0.09034   0.63751   0.00000  Uiso   1.00
N274   N     0.20018   0.48084   0.07132   0.00000  Uiso   1.00
N275   N     0.52872   0.60627   0.74455   0.00000  Uiso   1.00
N276   N     0.33649   0.08863   0.72917   0.00000  Uiso   1.00
