data_job_04547
_audit_creation_date              2018-12-19
_audit_creation_method            'Materials Studio'
_symmetry_space_group_name_H-M    'P1'
_symmetry_Int_Tables_number       1
_symmetry_cell_setting            triclinic
loop_
_symmetry_equiv_pos_as_xyz
  x,y,z
_cell_length_a                    10.2326
_cell_length_b                    24.9095
_cell_length_c                    18.0250
_cell_angle_alpha                 90.0000
_cell_angle_beta                  90.0000
_cell_angle_gamma                 90.0000
loop_
_atom_site_label
_atom_site_type_symbol
_atom_site_fract_x
_atom_site_fract_y
_atom_site_fract_z
_atom_site_U_iso_or_equiv
_atom_site_adp_type
_atom_site_occupancy
C1     C     0.51769   0.62539   0.70673   0.00000  Uiso   1.00
C2     C     0.59962   0.57520   0.72025   0.00000  Uiso   1.00
C3     C     0.59258   0.54232   0.78227   0.00000  Uiso   1.00
C4     C     0.67579   0.49832   0.78416   0.00000  Uiso   1.00
C5     C     0.78980   0.42202   0.81400   0.00000  Uiso   1.00
C6     C     0.61471   0.67093   0.69389   0.00000  Uiso   1.00
C7     C     0.62034   0.71854   0.73375   0.00000  Uiso   1.00
C8     C     0.71626   0.75512   0.71344   0.00000  Uiso   1.00
C9     C     0.85364   0.82746   0.70233   0.00000  Uiso   1.00
C10    C     0.44862   0.61657   0.63277   0.00000  Uiso   1.00
C11    C     0.31461   0.61850   0.62123   0.00000  Uiso   1.00
C12    C     0.27069   0.60934   0.54945   0.00000  Uiso   1.00
C13    C     0.15019   0.59728   0.44343   0.00000  Uiso   1.00
C14    C     0.67800   0.60571   0.59978   0.00000  Uiso   1.00
C15    C     0.68669   0.56451   0.66215   0.00000  Uiso   1.00
C16    C     0.76994   0.52055   0.66394   0.00000  Uiso   1.00
C17    C     0.76302   0.48761   0.72596   0.00000  Uiso   1.00
C18    C     0.70178   0.66024   0.63580   0.00000  Uiso   1.00
C19    C     0.79771   0.69676   0.61542   0.00000  Uiso   1.00
C20    C     0.80349   0.74441   0.65525   0.00000  Uiso   1.00
C21    C     0.53569   0.60588   0.57467   0.00000  Uiso   1.00
C22    C     0.49198   0.59672   0.50290   0.00000  Uiso   1.00
C23    C     0.35792   0.59863   0.49125   0.00000  Uiso   1.00
H24    H     0.44991   0.63372   0.75196   0.00000  Uiso   1.00
H25    H     0.52519   0.55061   0.82722   0.00000  Uiso   1.00
H26    H     0.55294   0.72680   0.77870   0.00000  Uiso   1.00
H27    H     0.24726   0.62678   0.66619   0.00000  Uiso   1.00
H28    H     0.64708   0.45377   0.88506   0.00000  Uiso   1.00
H29    H     0.70557   0.82528   0.78273   0.00000  Uiso   1.00
H30    H     0.06098   0.61436   0.54549   0.00000  Uiso   1.00
H31    H     0.74580   0.59739   0.55455   0.00000  Uiso   1.00
H32    H     0.83731   0.51228   0.61898   0.00000  Uiso   1.00
H33    H     0.86507   0.68848   0.57046   0.00000  Uiso   1.00
H34    H     0.55938   0.58845   0.45796   0.00000  Uiso   1.00
H35    H     0.90042   0.42266   0.71605   0.00000  Uiso   1.00
H36    H     0.95891   0.79417   0.61372   0.00000  Uiso   1.00
H37    H     0.31432   0.58325   0.37648   0.00000  Uiso   1.00
O38    O     0.82864   0.38289   0.84651   0.00000  Uiso   1.00
O39    O     0.90536   0.87031   0.71226   0.00000  Uiso   1.00
O40    O     0.05967   0.59358   0.40101   0.00000  Uiso   1.00
N41    N     0.69412   0.45812   0.83643   0.00000  Uiso   1.00
N42    N     0.74883   0.80546   0.74077   0.00000  Uiso   1.00
N43    N     0.14619   0.60828   0.51897   0.00000  Uiso   1.00
N44    N     0.83044   0.44138   0.74549   0.00000  Uiso   1.00
N45    N     0.88514   0.78872   0.64983   0.00000  Uiso   1.00
N46    N     0.28250   0.59154   0.42803   0.00000  Uiso   1.00
C47    C     0.98231   0.37461   0.20673   0.00000  Uiso   1.00
C48    C     0.90038   0.42480   0.22025   0.00000  Uiso   1.00
C49    C     0.90742   0.45768   0.28227   0.00000  Uiso   1.00
C50    C     0.82421   0.50168   0.28416   0.00000  Uiso   1.00
C51    C     0.71020   0.57798   0.31400   0.00000  Uiso   1.00
C52    C     0.88529   0.32907   0.19389   0.00000  Uiso   1.00
C53    C     0.87966   0.28146   0.23375   0.00000  Uiso   1.00
C54    C     0.78374   0.24488   0.21344   0.00000  Uiso   1.00
C55    C     0.64636   0.17254   0.20233   0.00000  Uiso   1.00
C56    C     0.05138   0.38343   0.13277   0.00000  Uiso   1.00
C57    C     0.18539   0.38150   0.12123   0.00000  Uiso   1.00
C58    C     0.22931   0.39066   0.04945   0.00000  Uiso   1.00
C59    C     0.34981   0.40272   0.94343   0.00000  Uiso   1.00
C60    C     0.82200   0.39429   0.09978   0.00000  Uiso   1.00
C61    C     0.81331   0.43549   0.16215   0.00000  Uiso   1.00
C62    C     0.73006   0.47945   0.16394   0.00000  Uiso   1.00
C63    C     0.73698   0.51239   0.22596   0.00000  Uiso   1.00
C64    C     0.79822   0.33976   0.13580   0.00000  Uiso   1.00
C65    C     0.70229   0.30324   0.11542   0.00000  Uiso   1.00
C66    C     0.69651   0.25559   0.15525   0.00000  Uiso   1.00
C67    C     0.96431   0.39412   0.07467   0.00000  Uiso   1.00
C68    C     0.00802   0.40328   0.00290   0.00000  Uiso   1.00
C69    C     0.14208   0.40137   0.99125   0.00000  Uiso   1.00
H70    H     0.05009   0.36628   0.25196   0.00000  Uiso   1.00
H71    H     0.97481   0.44939   0.32722   0.00000  Uiso   1.00
H72    H     0.94706   0.27320   0.27870   0.00000  Uiso   1.00
H73    H     0.25274   0.37322   0.16619   0.00000  Uiso   1.00
H74    H     0.85292   0.54623   0.38506   0.00000  Uiso   1.00
H75    H     0.79443   0.17472   0.28273   0.00000  Uiso   1.00
H76    H     0.43902   0.38564   0.04549   0.00000  Uiso   1.00
H77    H     0.75420   0.40261   0.05455   0.00000  Uiso   1.00
H78    H     0.66269   0.48772   0.11898   0.00000  Uiso   1.00
H79    H     0.63493   0.31152   0.07046   0.00000  Uiso   1.00
H80    H     0.94062   0.41155   0.95796   0.00000  Uiso   1.00
H81    H     0.59958   0.57734   0.21605   0.00000  Uiso   1.00
H82    H     0.54109   0.20583   0.11372   0.00000  Uiso   1.00
H83    H     0.18568   0.41675   0.87648   0.00000  Uiso   1.00
O84    O     0.67136   0.61711   0.34651   0.00000  Uiso   1.00
O85    O     0.59464   0.12969   0.21226   0.00000  Uiso   1.00
O86    O     0.44033   0.40642   0.90101   0.00000  Uiso   1.00
N87    N     0.80588   0.54188   0.33643   0.00000  Uiso   1.00
N88    N     0.75117   0.19454   0.24077   0.00000  Uiso   1.00
N89    N     0.35381   0.39172   0.01897   0.00000  Uiso   1.00
N90    N     0.66956   0.55862   0.24549   0.00000  Uiso   1.00
N91    N     0.61486   0.21128   0.14983   0.00000  Uiso   1.00
N92    N     0.21750   0.40846   0.92803   0.00000  Uiso   1.00
C93    C     0.48231   0.12539   0.79327   0.00000  Uiso   1.00
C94    C     0.40038   0.07520   0.77975   0.00000  Uiso   1.00
C95    C     0.40742   0.04232   0.71773   0.00000  Uiso   1.00
C96    C     0.32421   0.99832   0.71584   0.00000  Uiso   1.00
C97    C     0.21020   0.92202   0.68600   0.00000  Uiso   1.00
C98    C     0.38529   0.17093   0.80611   0.00000  Uiso   1.00
C99    C     0.37966   0.21854   0.76625   0.00000  Uiso   1.00
C100   C     0.28374   0.25512   0.78656   0.00000  Uiso   1.00
C101   C     0.14636   0.32746   0.79767   0.00000  Uiso   1.00
C102   C     0.55138   0.11657   0.86723   0.00000  Uiso   1.00
C103   C     0.68539   0.11850   0.87877   0.00000  Uiso   1.00
C104   C     0.72931   0.10934   0.95055   0.00000  Uiso   1.00
C105   C     0.84981   0.09728   0.05657   0.00000  Uiso   1.00
C106   C     0.32200   0.10571   0.90022   0.00000  Uiso   1.00
C107   C     0.31331   0.06451   0.83785   0.00000  Uiso   1.00
C108   C     0.23006   0.02055   0.83606   0.00000  Uiso   1.00
C109   C     0.23698   0.98761   0.77404   0.00000  Uiso   1.00
C110   C     0.29822   0.16024   0.86420   0.00000  Uiso   1.00
C111   C     0.20229   0.19676   0.88458   0.00000  Uiso   1.00
C112   C     0.19651   0.24441   0.84475   0.00000  Uiso   1.00
C113   C     0.46431   0.10588   0.92533   0.00000  Uiso   1.00
C114   C     0.50802   0.09672   0.99710   0.00000  Uiso   1.00
C115   C     0.64208   0.09863   0.00875   0.00000  Uiso   1.00
H116   H     0.55009   0.13372   0.74804   0.00000  Uiso   1.00
H117   H     0.47481   0.05061   0.67278   0.00000  Uiso   1.00
H118   H     0.44706   0.22680   0.72130   0.00000  Uiso   1.00
H119   H     0.75274   0.12678   0.83381   0.00000  Uiso   1.00
H120   H     0.35292   0.95377   0.61494   0.00000  Uiso   1.00
H121   H     0.29443   0.32528   0.71727   0.00000  Uiso   1.00
H122   H     0.93902   0.11436   0.95451   0.00000  Uiso   1.00
H123   H     0.25420   0.09739   0.94545   0.00000  Uiso   1.00
H124   H     0.16269   0.01228   0.88102   0.00000  Uiso   1.00
H125   H     0.13493   0.18848   0.92954   0.00000  Uiso   1.00
H126   H     0.44062   0.08845   0.04204   0.00000  Uiso   1.00
H127   H     0.09958   0.92266   0.78395   0.00000  Uiso   1.00
H128   H     0.04109   0.29417   0.88628   0.00000  Uiso   1.00
H129   H     0.68568   0.08325   0.12352   0.00000  Uiso   1.00
O130   O     0.17136   0.88289   0.65349   0.00000  Uiso   1.00
O131   O     0.09464   0.37031   0.78774   0.00000  Uiso   1.00
O132   O     0.94033   0.09358   0.09899   0.00000  Uiso   1.00
N133   N     0.30588   0.95812   0.66357   0.00000  Uiso   1.00
N134   N     0.25117   0.30546   0.75923   0.00000  Uiso   1.00
N135   N     0.85381   0.10828   0.98103   0.00000  Uiso   1.00
N136   N     0.16956   0.94138   0.75451   0.00000  Uiso   1.00
N137   N     0.11486   0.28872   0.85017   0.00000  Uiso   1.00
N138   N     0.71750   0.09154   0.07197   0.00000  Uiso   1.00
C139   C     0.01769   0.87461   0.29327   0.00000  Uiso   1.00
C140   C     0.09962   0.92480   0.27975   0.00000  Uiso   1.00
C141   C     0.09258   0.95768   0.21773   0.00000  Uiso   1.00
C142   C     0.17579   0.00168   0.21584   0.00000  Uiso   1.00
C143   C     0.28980   0.07798   0.18600   0.00000  Uiso   1.00
C144   C     0.11471   0.82907   0.30611   0.00000  Uiso   1.00
C145   C     0.12034   0.78146   0.26625   0.00000  Uiso   1.00
C146   C     0.21626   0.74488   0.28656   0.00000  Uiso   1.00
C147   C     0.35364   0.67254   0.29767   0.00000  Uiso   1.00
C148   C     0.94862   0.88343   0.36723   0.00000  Uiso   1.00
C149   C     0.81461   0.88150   0.37877   0.00000  Uiso   1.00
C150   C     0.77069   0.89066   0.45055   0.00000  Uiso   1.00
C151   C     0.65019   0.90272   0.55657   0.00000  Uiso   1.00
C152   C     0.17800   0.89429   0.40022   0.00000  Uiso   1.00
C153   C     0.18669   0.93549   0.33785   0.00000  Uiso   1.00
C154   C     0.26994   0.97945   0.33606   0.00000  Uiso   1.00
C155   C     0.26302   0.01239   0.27404   0.00000  Uiso   1.00
C156   C     0.20178   0.83976   0.36420   0.00000  Uiso   1.00
C157   C     0.29771   0.80324   0.38458   0.00000  Uiso   1.00
C158   C     0.30349   0.75559   0.34475   0.00000  Uiso   1.00
C159   C     0.03569   0.89412   0.42533   0.00000  Uiso   1.00
C160   C     0.99198   0.90328   0.49710   0.00000  Uiso   1.00
C161   C     0.85792   0.90137   0.50875   0.00000  Uiso   1.00
H162   H     0.94991   0.86628   0.24804   0.00000  Uiso   1.00
H163   H     0.02519   0.94939   0.17278   0.00000  Uiso   1.00
H164   H     0.05294   0.77320   0.22130   0.00000  Uiso   1.00
H165   H     0.74726   0.87322   0.33381   0.00000  Uiso   1.00
H166   H     0.14708   0.04623   0.11494   0.00000  Uiso   1.00
H167   H     0.20557   0.67472   0.21727   0.00000  Uiso   1.00
H168   H     0.56098   0.88564   0.45451   0.00000  Uiso   1.00
H169   H     0.24580   0.90261   0.44545   0.00000  Uiso   1.00
H170   H     0.33731   0.98772   0.38102   0.00000  Uiso   1.00
H171   H     0.36507   0.81152   0.42954   0.00000  Uiso   1.00
H172   H     0.05938   0.91155   0.54204   0.00000  Uiso   1.00
H173   H     0.40042   0.07734   0.28395   0.00000  Uiso   1.00
H174   H     0.45891   0.70583   0.38628   0.00000  Uiso   1.00
H175   H     0.81432   0.91675   0.62352   0.00000  Uiso   1.00
O176   O     0.32864   0.11711   0.15349   0.00000  Uiso   1.00
O177   O     0.40536   0.62969   0.28774   0.00000  Uiso   1.00
O178   O     0.55967   0.90642   0.59899   0.00000  Uiso   1.00
N179   N     0.19412   0.04188   0.16357   0.00000  Uiso   1.00
N180   N     0.24883   0.69454   0.25923   0.00000  Uiso   1.00
N181   N     0.64619   0.89172   0.48103   0.00000  Uiso   1.00
N182   N     0.33044   0.05862   0.25451   0.00000  Uiso   1.00
N183   N     0.38514   0.71128   0.35017   0.00000  Uiso   1.00
N184   N     0.78250   0.90846   0.57197   0.00000  Uiso   1.00
C185   C     0.48231   0.37461   0.29327   0.00000  Uiso   1.00
C186   C     0.40038   0.42480   0.27975   0.00000  Uiso   1.00
C187   C     0.40742   0.45768   0.21773   0.00000  Uiso   1.00
C188   C     0.32421   0.50168   0.21584   0.00000  Uiso   1.00
C189   C     0.21020   0.57798   0.18600   0.00000  Uiso   1.00
C190   C     0.38529   0.32907   0.30611   0.00000  Uiso   1.00
C191   C     0.37966   0.28146   0.26625   0.00000  Uiso   1.00
C192   C     0.28374   0.24488   0.28656   0.00000  Uiso   1.00
C193   C     0.14636   0.17254   0.29767   0.00000  Uiso   1.00
C194   C     0.55138   0.38343   0.36723   0.00000  Uiso   1.00
C195   C     0.68539   0.38150   0.37877   0.00000  Uiso   1.00
C196   C     0.72931   0.39066   0.45055   0.00000  Uiso   1.00
C197   C     0.84981   0.40272   0.55657   0.00000  Uiso   1.00
C198   C     0.32200   0.39429   0.40022   0.00000  Uiso   1.00
C199   C     0.31331   0.43549   0.33785   0.00000  Uiso   1.00
C200   C     0.23006   0.47945   0.33606   0.00000  Uiso   1.00
C201   C     0.23698   0.51239   0.27404   0.00000  Uiso   1.00
C202   C     0.29822   0.33976   0.36420   0.00000  Uiso   1.00
C203   C     0.20229   0.30324   0.38458   0.00000  Uiso   1.00
C204   C     0.19651   0.25559   0.34475   0.00000  Uiso   1.00
C205   C     0.46431   0.39412   0.42533   0.00000  Uiso   1.00
C206   C     0.50802   0.40328   0.49710   0.00000  Uiso   1.00
C207   C     0.64208   0.40137   0.50875   0.00000  Uiso   1.00
H208   H     0.55009   0.36628   0.24804   0.00000  Uiso   1.00
H209   H     0.47481   0.44939   0.17278   0.00000  Uiso   1.00
H210   H     0.44706   0.27320   0.22130   0.00000  Uiso   1.00
H211   H     0.75274   0.37322   0.33381   0.00000  Uiso   1.00
H212   H     0.35292   0.54623   0.11494   0.00000  Uiso   1.00
H213   H     0.29443   0.17472   0.21727   0.00000  Uiso   1.00
H214   H     0.93902   0.38564   0.45451   0.00000  Uiso   1.00
H215   H     0.25420   0.40261   0.44545   0.00000  Uiso   1.00
H216   H     0.16269   0.48772   0.38102   0.00000  Uiso   1.00
H217   H     0.13493   0.31152   0.42954   0.00000  Uiso   1.00
H218   H     0.44062   0.41155   0.54204   0.00000  Uiso   1.00
H219   H     0.09958   0.57734   0.28395   0.00000  Uiso   1.00
H220   H     0.04109   0.20583   0.38628   0.00000  Uiso   1.00
H221   H     0.68568   0.41675   0.62352   0.00000  Uiso   1.00
O222   O     0.17136   0.61711   0.15349   0.00000  Uiso   1.00
O223   O     0.09464   0.12969   0.28774   0.00000  Uiso   1.00
O224   O     0.94033   0.40642   0.59899   0.00000  Uiso   1.00
N225   N     0.30588   0.54188   0.16357   0.00000  Uiso   1.00
N226   N     0.25117   0.19454   0.25923   0.00000  Uiso   1.00
N227   N     0.85381   0.39172   0.48103   0.00000  Uiso   1.00
N228   N     0.16956   0.55862   0.25451   0.00000  Uiso   1.00
N229   N     0.11486   0.21128   0.35017   0.00000  Uiso   1.00
N230   N     0.71750   0.40846   0.57197   0.00000  Uiso   1.00
C231   C     0.01769   0.62539   0.79327   0.00000  Uiso   1.00
C232   C     0.09962   0.57520   0.77975   0.00000  Uiso   1.00
C233   C     0.09258   0.54232   0.71773   0.00000  Uiso   1.00
C234   C     0.17579   0.49832   0.71584   0.00000  Uiso   1.00
C235   C     0.28980   0.42202   0.68600   0.00000  Uiso   1.00
C236   C     0.11471   0.67093   0.80611   0.00000  Uiso   1.00
C237   C     0.12034   0.71854   0.76625   0.00000  Uiso   1.00
C238   C     0.21626   0.75512   0.78656   0.00000  Uiso   1.00
C239   C     0.35364   0.82746   0.79767   0.00000  Uiso   1.00
C240   C     0.94862   0.61657   0.86723   0.00000  Uiso   1.00
C241   C     0.81461   0.61850   0.87877   0.00000  Uiso   1.00
C242   C     0.77069   0.60934   0.95055   0.00000  Uiso   1.00
C243   C     0.65019   0.59728   0.05657   0.00000  Uiso   1.00
C244   C     0.17800   0.60571   0.90022   0.00000  Uiso   1.00
C245   C     0.18669   0.56451   0.83785   0.00000  Uiso   1.00
C246   C     0.26994   0.52055   0.83606   0.00000  Uiso   1.00
C247   C     0.26302   0.48761   0.77404   0.00000  Uiso   1.00
C248   C     0.20178   0.66024   0.86420   0.00000  Uiso   1.00
C249   C     0.29771   0.69676   0.88458   0.00000  Uiso   1.00
C250   C     0.30349   0.74441   0.84475   0.00000  Uiso   1.00
C251   C     0.03569   0.60588   0.92533   0.00000  Uiso   1.00
C252   C     0.99198   0.59672   0.99710   0.00000  Uiso   1.00
C253   C     0.85792   0.59863   0.00875   0.00000  Uiso   1.00
H254   H     0.94991   0.63372   0.74804   0.00000  Uiso   1.00
H255   H     0.02519   0.55061   0.67278   0.00000  Uiso   1.00
H256   H     0.05294   0.72680   0.72130   0.00000  Uiso   1.00
H257   H     0.74726   0.62678   0.83381   0.00000  Uiso   1.00
H258   H     0.14708   0.45377   0.61494   0.00000  Uiso   1.00
H259   H     0.20557   0.82528   0.71727   0.00000  Uiso   1.00
H260   H     0.56098   0.61436   0.95451   0.00000  Uiso   1.00
H261   H     0.24580   0.59739   0.94545   0.00000  Uiso   1.00
H262   H     0.33731   0.51228   0.88102   0.00000  Uiso   1.00
H263   H     0.36507   0.68848   0.92954   0.00000  Uiso   1.00
H264   H     0.05938   0.58845   0.04204   0.00000  Uiso   1.00
H265   H     0.40042   0.42266   0.78395   0.00000  Uiso   1.00
H266   H     0.45891   0.79417   0.88628   0.00000  Uiso   1.00
H267   H     0.81432   0.58325   0.12352   0.00000  Uiso   1.00
O268   O     0.32864   0.38289   0.65349   0.00000  Uiso   1.00
O269   O     0.40536   0.87031   0.78774   0.00000  Uiso   1.00
O270   O     0.55967   0.59358   0.09899   0.00000  Uiso   1.00
N271   N     0.19412   0.45812   0.66357   0.00000  Uiso   1.00
N272   N     0.24883   0.80546   0.75923   0.00000  Uiso   1.00
N273   N     0.64619   0.60828   0.98103   0.00000  Uiso   1.00
N274   N     0.33044   0.44138   0.75451   0.00000  Uiso   1.00
N275   N     0.38514   0.78872   0.85017   0.00000  Uiso   1.00
N276   N     0.78250   0.59154   0.07197   0.00000  Uiso   1.00
C277   C     0.51769   0.87461   0.20673   0.00000  Uiso   1.00
C278   C     0.59962   0.92480   0.22025   0.00000  Uiso   1.00
C279   C     0.59258   0.95768   0.28227   0.00000  Uiso   1.00
C280   C     0.67579   0.00168   0.28416   0.00000  Uiso   1.00
C281   C     0.78980   0.07798   0.31400   0.00000  Uiso   1.00
C282   C     0.61471   0.82907   0.19389   0.00000  Uiso   1.00
C283   C     0.62034   0.78146   0.23375   0.00000  Uiso   1.00
C284   C     0.71626   0.74488   0.21344   0.00000  Uiso   1.00
C285   C     0.85364   0.67254   0.20233   0.00000  Uiso   1.00
C286   C     0.44862   0.88343   0.13277   0.00000  Uiso   1.00
C287   C     0.31461   0.88150   0.12123   0.00000  Uiso   1.00
C288   C     0.27069   0.89066   0.04945   0.00000  Uiso   1.00
C289   C     0.15019   0.90272   0.94343   0.00000  Uiso   1.00
C290   C     0.67800   0.89429   0.09978   0.00000  Uiso   1.00
C291   C     0.68669   0.93549   0.16215   0.00000  Uiso   1.00
C292   C     0.76994   0.97945   0.16394   0.00000  Uiso   1.00
C293   C     0.76302   0.01239   0.22596   0.00000  Uiso   1.00
C294   C     0.70178   0.83976   0.13580   0.00000  Uiso   1.00
C295   C     0.79771   0.80324   0.11542   0.00000  Uiso   1.00
C296   C     0.80349   0.75559   0.15525   0.00000  Uiso   1.00
C297   C     0.53569   0.89412   0.07467   0.00000  Uiso   1.00
C298   C     0.49198   0.90328   0.00290   0.00000  Uiso   1.00
C299   C     0.35792   0.90137   0.99125   0.00000  Uiso   1.00
H300   H     0.44991   0.86628   0.25196   0.00000  Uiso   1.00
H301   H     0.52519   0.94939   0.32722   0.00000  Uiso   1.00
H302   H     0.55294   0.77320   0.27870   0.00000  Uiso   1.00
H303   H     0.24726   0.87322   0.16619   0.00000  Uiso   1.00
H304   H     0.64708   0.04623   0.38506   0.00000  Uiso   1.00
H305   H     0.70557   0.67472   0.28273   0.00000  Uiso   1.00
H306   H     0.06098   0.88564   0.04549   0.00000  Uiso   1.00
H307   H     0.74580   0.90261   0.05455   0.00000  Uiso   1.00
H308   H     0.83731   0.98772   0.11898   0.00000  Uiso   1.00
H309   H     0.86507   0.81152   0.07046   0.00000  Uiso   1.00
H310   H     0.55938   0.91155   0.95796   0.00000  Uiso   1.00
H311   H     0.90042   0.07734   0.21605   0.00000  Uiso   1.00
H312   H     0.95891   0.70583   0.11372   0.00000  Uiso   1.00
H313   H     0.31432   0.91675   0.87648   0.00000  Uiso   1.00
O314   O     0.82864   0.11711   0.34651   0.00000  Uiso   1.00
O315   O     0.90536   0.62969   0.21226   0.00000  Uiso   1.00
O316   O     0.05967   0.90642   0.90101   0.00000  Uiso   1.00
N317   N     0.69412   0.04188   0.33643   0.00000  Uiso   1.00
N318   N     0.74883   0.69454   0.24077   0.00000  Uiso   1.00
N319   N     0.14619   0.89172   0.01897   0.00000  Uiso   1.00
N320   N     0.83044   0.05862   0.24549   0.00000  Uiso   1.00
N321   N     0.88514   0.71128   0.14983   0.00000  Uiso   1.00
N322   N     0.28250   0.90846   0.92803   0.00000  Uiso   1.00
C323   C     0.98231   0.12539   0.70673   0.00000  Uiso   1.00
C324   C     0.90038   0.07520   0.72025   0.00000  Uiso   1.00
C325   C     0.90742   0.04232   0.78227   0.00000  Uiso   1.00
C326   C     0.82421   0.99832   0.78416   0.00000  Uiso   1.00
C327   C     0.71020   0.92202   0.81400   0.00000  Uiso   1.00
C328   C     0.88529   0.17093   0.69389   0.00000  Uiso   1.00
C329   C     0.87966   0.21854   0.73375   0.00000  Uiso   1.00
C330   C     0.78374   0.25512   0.71344   0.00000  Uiso   1.00
C331   C     0.64636   0.32746   0.70233   0.00000  Uiso   1.00
C332   C     0.05138   0.11657   0.63277   0.00000  Uiso   1.00
C333   C     0.18539   0.11850   0.62123   0.00000  Uiso   1.00
C334   C     0.22931   0.10934   0.54945   0.00000  Uiso   1.00
C335   C     0.34981   0.09728   0.44343   0.00000  Uiso   1.00
C336   C     0.82200   0.10571   0.59978   0.00000  Uiso   1.00
C337   C     0.81331   0.06451   0.66215   0.00000  Uiso   1.00
C338   C     0.73006   0.02055   0.66394   0.00000  Uiso   1.00
C339   C     0.73698   0.98761   0.72596   0.00000  Uiso   1.00
C340   C     0.79822   0.16024   0.63580   0.00000  Uiso   1.00
C341   C     0.70229   0.19676   0.61542   0.00000  Uiso   1.00
C342   C     0.69651   0.24441   0.65525   0.00000  Uiso   1.00
C343   C     0.96431   0.10588   0.57467   0.00000  Uiso   1.00
C344   C     0.00802   0.09672   0.50290   0.00000  Uiso   1.00
C345   C     0.14208   0.09863   0.49125   0.00000  Uiso   1.00
H346   H     0.05009   0.13372   0.75196   0.00000  Uiso   1.00
H347   H     0.97481   0.05061   0.82722   0.00000  Uiso   1.00
H348   H     0.94706   0.22680   0.77870   0.00000  Uiso   1.00
H349   H     0.25274   0.12678   0.66619   0.00000  Uiso   1.00
H350   H     0.85292   0.95377   0.88506   0.00000  Uiso   1.00
H351   H     0.79443   0.32528   0.78273   0.00000  Uiso   1.00
H352   H     0.43902   0.11436   0.54549   0.00000  Uiso   1.00
H353   H     0.75420   0.09739   0.55455   0.00000  Uiso   1.00
H354   H     0.66269   0.01228   0.61898   0.00000  Uiso   1.00
H355   H     0.63493   0.18848   0.57046   0.00000  Uiso   1.00
H356   H     0.94062   0.08845   0.45796   0.00000  Uiso   1.00
H357   H     0.59958   0.92266   0.71605   0.00000  Uiso   1.00
H358   H     0.54109   0.29417   0.61372   0.00000  Uiso   1.00
H359   H     0.18568   0.08325   0.37648   0.00000  Uiso   1.00
O360   O     0.67136   0.88289   0.84651   0.00000  Uiso   1.00
O361   O     0.59464   0.37031   0.71226   0.00000  Uiso   1.00
O362   O     0.44033   0.09358   0.40101   0.00000  Uiso   1.00
N363   N     0.80588   0.95812   0.83643   0.00000  Uiso   1.00
N364   N     0.75117   0.30546   0.74077   0.00000  Uiso   1.00
N365   N     0.35381   0.10828   0.51897   0.00000  Uiso   1.00
N366   N     0.66956   0.94138   0.74549   0.00000  Uiso   1.00
N367   N     0.61486   0.28872   0.64983   0.00000  Uiso   1.00
N368   N     0.21750   0.09154   0.42803   0.00000  Uiso   1.00
