data_job_05220
_audit_creation_date              2018-12-19
_audit_creation_method            'Materials Studio'
_symmetry_space_group_name_H-M    'P1'
_symmetry_Int_Tables_number       1
_symmetry_cell_setting            triclinic
loop_
_symmetry_equiv_pos_as_xyz
  x,y,z
_cell_length_a                    31.8242
_cell_length_b                    11.8683
_cell_length_c                    13.0655
_cell_angle_alpha                 90.0000
_cell_angle_beta                  90.0000
_cell_angle_gamma                 90.0000
loop_
_atom_site_label
_atom_site_type_symbol
_atom_site_fract_x
_atom_site_fract_y
_atom_site_fract_z
_atom_site_U_iso_or_equiv
_atom_site_adp_type
_atom_site_occupancy
C1     C     0.58637   0.28394   0.99314   0.00000  Uiso   1.00
C2     C     0.59504   0.40939   0.00693   0.00000  Uiso   1.00
C3     C     0.57459   0.48043   0.07502   0.00000  Uiso   1.00
C4     C     0.58708   0.59250   0.07603   0.00000  Uiso   1.00
C5     C     0.59569   0.78130   0.10726   0.00000  Uiso   1.00
C6     C     0.57596   0.26782   0.88016   0.00000  Uiso   1.00
C7     C     0.53947   0.21980   0.84167   0.00000  Uiso   1.00
C8     C     0.53591   0.21268   0.73596   0.00000  Uiso   1.00
C9     C     0.51491   0.18161   0.57038   0.00000  Uiso   1.00
C10    C     0.62824   0.22446   0.01056   0.00000  Uiso   1.00
C11    C     0.63570   0.13995   0.08170   0.00000  Uiso   1.00
C12    C     0.67614   0.09631   0.08575   0.00000  Uiso   1.00
C13    C     0.73631   0.99791   0.12264   0.00000  Uiso   1.00
C14    C     0.64493   0.35667   0.87383   0.00000  Uiso   1.00
C15    C     0.62685   0.44889   0.94212   0.00000  Uiso   1.00
C16    C     0.63938   0.56089   0.94302   0.00000  Uiso   1.00
C17    C     0.61895   0.63208   0.01111   0.00000  Uiso   1.00
C18    C     0.60777   0.30732   0.81535   0.00000  Uiso   1.00
C19    C     0.60426   0.30026   0.70967   0.00000  Uiso   1.00
C20    C     0.56777   0.25226   0.67103   0.00000  Uiso   1.00
C21    C     0.66004   0.26396   0.94575   0.00000  Uiso   1.00
C22    C     0.70048   0.22043   0.94969   0.00000  Uiso   1.00
C23    C     0.70801   0.13589   0.02083   0.00000  Uiso   1.00
H24    H     0.56161   0.25318   0.04359   0.00000  Uiso   1.00
H25    H     0.54998   0.44982   0.12516   0.00000  Uiso   1.00
H26    H     0.51487   0.18923   0.89184   0.00000  Uiso   1.00
H27    H     0.61108   0.10941   0.13183   0.00000  Uiso   1.00
H28    H     0.55110   0.68527   0.18699   0.00000  Uiso   1.00
H29    H     0.47707   0.13575   0.69503   0.00000  Uiso   1.00
H30    H     0.67995   0.96742   0.20110   0.00000  Uiso   1.00
H31    H     0.66969   0.38742   0.82337   0.00000  Uiso   1.00
H32    H     0.66399   0.59144   0.89286   0.00000  Uiso   1.00
H33    H     0.62888   0.33084   0.65954   0.00000  Uiso   1.00
H34    H     0.72509   0.25102   0.89953   0.00000  Uiso   1.00
H35    H     0.64363   0.80021   0.99845   0.00000  Uiso   1.00
H36    H     0.56960   0.25068   0.50648   0.00000  Uiso   1.00
H37    H     0.77248   0.08237   0.01255   0.00000  Uiso   1.00
O38    O     0.59165   0.87453   0.14238   0.00000  Uiso   1.00
O39    O     0.49454   0.15356   0.49695   0.00000  Uiso   1.00
O40    O     0.76071   0.93273   0.16090   0.00000  Uiso   1.00
N41    N     0.57366   0.68432   0.13309   0.00000  Uiso   1.00
N42    N     0.50445   0.17056   0.67314   0.00000  Uiso   1.00
N43    N     0.69412   0.01317   0.14625   0.00000  Uiso   1.00
N44    N     0.62345   0.74616   0.03164   0.00000  Uiso   1.00
N45    N     0.55424   0.23241   0.57169   0.00000  Uiso   1.00
N46    N     0.74391   0.07502   0.04480   0.00000  Uiso   1.00
C47    C     0.61124   0.85776   0.46353   0.00000  Uiso   1.00
C48    C     0.62639   0.73594   0.45963   0.00000  Uiso   1.00
C49    C     0.62396   0.66500   0.37541   0.00000  Uiso   1.00
C50    C     0.63955   0.55654   0.38731   0.00000  Uiso   1.00
C51    C     0.66042   0.37286   0.36716   0.00000  Uiso   1.00
C52    C     0.58014   0.86394   0.55214   0.00000  Uiso   1.00
C53    C     0.53881   0.90063   0.54569   0.00000  Uiso   1.00
C54    C     0.51547   0.89993   0.63547   0.00000  Uiso   1.00
C55    C     0.46454   0.91505   0.75895   0.00000  Uiso   1.00
C56    C     0.64913   0.92784   0.49594   0.00000  Uiso   1.00
C57    C     0.66581   0.01829   0.44225   0.00000  Uiso   1.00
C58    C     0.70055   0.07141   0.48473   0.00000  Uiso   1.00
C59    C     0.75673   0.18575   0.52095   0.00000  Uiso   1.00
C60    C     0.64326   0.79129   0.63444   0.00000  Uiso   1.00
C61    C     0.64379   0.69984   0.55247   0.00000  Uiso   1.00
C62    C     0.65939   0.59146   0.56450   0.00000  Uiso   1.00
C63    C     0.65698   0.52037   0.48031   0.00000  Uiso   1.00
C64    C     0.59753   0.82784   0.64497   0.00000  Uiso   1.00
C65    C     0.57425   0.82709   0.73478   0.00000  Uiso   1.00
C66    C     0.53290   0.86376   0.72847   0.00000  Uiso   1.00
C67    C     0.66653   0.89174   0.58877   0.00000  Uiso   1.00
C68    C     0.70124   0.94474   0.63135   0.00000  Uiso   1.00
C69    C     0.71798   0.03524   0.57773   0.00000  Uiso   1.00
H70    H     0.59769   0.88587   0.39126   0.00000  Uiso   1.00
H71    H     0.61049   0.69297   0.30358   0.00000  Uiso   1.00
H72    H     0.52536   0.92857   0.47384   0.00000  Uiso   1.00
H73    H     0.65234   0.04620   0.37042   0.00000  Uiso   1.00
H74    H     0.63234   0.46317   0.24733   0.00000  Uiso   1.00
H75    H     0.45284   0.95999   0.60633   0.00000  Uiso   1.00
H76    H     0.72060   0.20804   0.38825   0.00000  Uiso   1.00
H77    H     0.65681   0.76318   0.70672   0.00000  Uiso   1.00
H78    H     0.67285   0.56354   0.63635   0.00000  Uiso   1.00
H79    H     0.58772   0.79915   0.80661   0.00000  Uiso   1.00
H80    H     0.71470   0.91678   0.70319   0.00000  Uiso   1.00
H81    H     0.68295   0.35812   0.51742   0.00000  Uiso   1.00
H82    H     0.50345   0.85495   0.87642   0.00000  Uiso   1.00
H83    H     0.77121   0.10300   0.65834   0.00000  Uiso   1.00
O84    O     0.66712   0.28151   0.33040   0.00000  Uiso   1.00
O85    O     0.43163   0.93335   0.80140   0.00000  Uiso   1.00
O86    O     0.78292   0.25878   0.51528   0.00000  Uiso   1.00
N87    N     0.64206   0.46585   0.32054   0.00000  Uiso   1.00
N88    N     0.47423   0.93033   0.65619   0.00000  Uiso   1.00
N89    N     0.72456   0.16226   0.45231   0.00000  Uiso   1.00
N90    N     0.66929   0.40932   0.46588   0.00000  Uiso   1.00
N91    N     0.50147   0.87380   0.80152   0.00000  Uiso   1.00
N92    N     0.75179   0.10573   0.59764   0.00000  Uiso   1.00
C93    C     0.41363   0.71606   0.49314   0.00000  Uiso   1.00
C94    C     0.40496   0.59061   0.50693   0.00000  Uiso   1.00
C95    C     0.42541   0.51957   0.57502   0.00000  Uiso   1.00
C96    C     0.41292   0.40750   0.57603   0.00000  Uiso   1.00
C97    C     0.40431   0.21870   0.60726   0.00000  Uiso   1.00
C98    C     0.42404   0.73218   0.38016   0.00000  Uiso   1.00
C99    C     0.46053   0.78020   0.34167   0.00000  Uiso   1.00
C100   C     0.46409   0.78732   0.23596   0.00000  Uiso   1.00
C101   C     0.48509   0.81839   0.07038   0.00000  Uiso   1.00
C102   C     0.37176   0.77554   0.51056   0.00000  Uiso   1.00
C103   C     0.36430   0.86005   0.58170   0.00000  Uiso   1.00
C104   C     0.32386   0.90369   0.58575   0.00000  Uiso   1.00
C105   C     0.26369   0.00209   0.62264   0.00000  Uiso   1.00
C106   C     0.35507   0.64333   0.37383   0.00000  Uiso   1.00
C107   C     0.37315   0.55111   0.44212   0.00000  Uiso   1.00
C108   C     0.36062   0.43911   0.44302   0.00000  Uiso   1.00
C109   C     0.38105   0.36792   0.51111   0.00000  Uiso   1.00
C110   C     0.39223   0.69268   0.31535   0.00000  Uiso   1.00
C111   C     0.39574   0.69974   0.20967   0.00000  Uiso   1.00
C112   C     0.43223   0.74774   0.17103   0.00000  Uiso   1.00
C113   C     0.33996   0.73604   0.44575   0.00000  Uiso   1.00
C114   C     0.29952   0.77957   0.44969   0.00000  Uiso   1.00
C115   C     0.29199   0.86411   0.52083   0.00000  Uiso   1.00
H116   H     0.43839   0.74682   0.54359   0.00000  Uiso   1.00
H117   H     0.45002   0.55018   0.62516   0.00000  Uiso   1.00
H118   H     0.48513   0.81077   0.39184   0.00000  Uiso   1.00
H119   H     0.38892   0.89059   0.63183   0.00000  Uiso   1.00
H120   H     0.44890   0.31473   0.68699   0.00000  Uiso   1.00
H121   H     0.52293   0.86425   0.19503   0.00000  Uiso   1.00
H122   H     0.32005   0.03258   0.70110   0.00000  Uiso   1.00
H123   H     0.33031   0.61258   0.32337   0.00000  Uiso   1.00
H124   H     0.33601   0.40856   0.39286   0.00000  Uiso   1.00
H125   H     0.37112   0.66916   0.15954   0.00000  Uiso   1.00
H126   H     0.27491   0.74898   0.39953   0.00000  Uiso   1.00
H127   H     0.35637   0.19979   0.49845   0.00000  Uiso   1.00
H128   H     0.43040   0.74932   0.00648   0.00000  Uiso   1.00
H129   H     0.22752   0.91763   0.51255   0.00000  Uiso   1.00
O130   O     0.40835   0.12547   0.64238   0.00000  Uiso   1.00
O131   O     0.50546   0.84644   0.99695   0.00000  Uiso   1.00
O132   O     0.23929   0.06727   0.66090   0.00000  Uiso   1.00
N133   N     0.42634   0.31568   0.63309   0.00000  Uiso   1.00
N134   N     0.49555   0.82944   0.17314   0.00000  Uiso   1.00
N135   N     0.30588   0.98683   0.64625   0.00000  Uiso   1.00
N136   N     0.37655   0.25384   0.53164   0.00000  Uiso   1.00
N137   N     0.44576   0.76759   0.07169   0.00000  Uiso   1.00
N138   N     0.25609   0.92498   0.54480   0.00000  Uiso   1.00
C139   C     0.38876   0.14224   0.96353   0.00000  Uiso   1.00
C140   C     0.37361   0.26406   0.95963   0.00000  Uiso   1.00
C141   C     0.37604   0.33500   0.87541   0.00000  Uiso   1.00
C142   C     0.36045   0.44346   0.88731   0.00000  Uiso   1.00
C143   C     0.33958   0.62714   0.86716   0.00000  Uiso   1.00
C144   C     0.41986   0.13606   0.05214   0.00000  Uiso   1.00
C145   C     0.46119   0.09937   0.04569   0.00000  Uiso   1.00
C146   C     0.48453   0.10007   0.13547   0.00000  Uiso   1.00
C147   C     0.53546   0.08495   0.25895   0.00000  Uiso   1.00
C148   C     0.35087   0.07216   0.99594   0.00000  Uiso   1.00
C149   C     0.33419   0.98171   0.94225   0.00000  Uiso   1.00
C150   C     0.29945   0.92859   0.98473   0.00000  Uiso   1.00
C151   C     0.24327   0.81425   0.02095   0.00000  Uiso   1.00
C152   C     0.35674   0.20871   0.13444   0.00000  Uiso   1.00
C153   C     0.35621   0.30016   0.05247   0.00000  Uiso   1.00
C154   C     0.34061   0.40854   0.06450   0.00000  Uiso   1.00
C155   C     0.34302   0.47963   0.98031   0.00000  Uiso   1.00
C156   C     0.40247   0.17216   0.14497   0.00000  Uiso   1.00
C157   C     0.42575   0.17291   0.23478   0.00000  Uiso   1.00
C158   C     0.46710   0.13624   0.22847   0.00000  Uiso   1.00
C159   C     0.33347   0.10826   0.08877   0.00000  Uiso   1.00
C160   C     0.29876   0.05526   0.13135   0.00000  Uiso   1.00
C161   C     0.28202   0.96476   0.07773   0.00000  Uiso   1.00
H162   H     0.40231   0.11413   0.89126   0.00000  Uiso   1.00
H163   H     0.38951   0.30703   0.80358   0.00000  Uiso   1.00
H164   H     0.47464   0.07143   0.97384   0.00000  Uiso   1.00
H165   H     0.34766   0.95380   0.87042   0.00000  Uiso   1.00
H166   H     0.36766   0.53683   0.74733   0.00000  Uiso   1.00
H167   H     0.54716   0.04001   0.10633   0.00000  Uiso   1.00
H168   H     0.27940   0.79196   0.88825   0.00000  Uiso   1.00
H169   H     0.34319   0.23682   0.20672   0.00000  Uiso   1.00
H170   H     0.32715   0.43646   0.13635   0.00000  Uiso   1.00
H171   H     0.41228   0.20085   0.30661   0.00000  Uiso   1.00
H172   H     0.28530   0.08322   0.20319   0.00000  Uiso   1.00
H173   H     0.31705   0.64188   0.01742   0.00000  Uiso   1.00
H174   H     0.49655   0.14505   0.37642   0.00000  Uiso   1.00
H175   H     0.22879   0.89700   0.15834   0.00000  Uiso   1.00
O176   O     0.33288   0.71849   0.83040   0.00000  Uiso   1.00
O177   O     0.56837   0.06665   0.30140   0.00000  Uiso   1.00
O178   O     0.21708   0.74122   0.01528   0.00000  Uiso   1.00
N179   N     0.35794   0.53415   0.82054   0.00000  Uiso   1.00
N180   N     0.52577   0.06967   0.15619   0.00000  Uiso   1.00
N181   N     0.27544   0.83774   0.95231   0.00000  Uiso   1.00
N182   N     0.33071   0.59068   0.96588   0.00000  Uiso   1.00
N183   N     0.49853   0.12620   0.30152   0.00000  Uiso   1.00
N184   N     0.24821   0.89427   0.09764   0.00000  Uiso   1.00
C185   C     0.08637   0.21606   0.99314   0.00000  Uiso   1.00
C186   C     0.09504   0.09061   0.00693   0.00000  Uiso   1.00
C187   C     0.07459   0.01957   0.07502   0.00000  Uiso   1.00
C188   C     0.08708   0.90750   0.07603   0.00000  Uiso   1.00
C189   C     0.09569   0.71870   0.10726   0.00000  Uiso   1.00
C190   C     0.07596   0.23218   0.88016   0.00000  Uiso   1.00
C191   C     0.03947   0.28020   0.84167   0.00000  Uiso   1.00
C192   C     0.03591   0.28732   0.73596   0.00000  Uiso   1.00
C193   C     0.01491   0.31839   0.57038   0.00000  Uiso   1.00
C194   C     0.12824   0.27554   0.01056   0.00000  Uiso   1.00
C195   C     0.13570   0.36005   0.08170   0.00000  Uiso   1.00
C196   C     0.17614   0.40369   0.08575   0.00000  Uiso   1.00
C197   C     0.23631   0.50209   0.12264   0.00000  Uiso   1.00
C198   C     0.14493   0.14333   0.87383   0.00000  Uiso   1.00
C199   C     0.12685   0.05111   0.94212   0.00000  Uiso   1.00
C200   C     0.13938   0.93911   0.94302   0.00000  Uiso   1.00
C201   C     0.11895   0.86792   0.01111   0.00000  Uiso   1.00
C202   C     0.10777   0.19268   0.81535   0.00000  Uiso   1.00
C203   C     0.10426   0.19974   0.70967   0.00000  Uiso   1.00
C204   C     0.06777   0.24774   0.67103   0.00000  Uiso   1.00
C205   C     0.16004   0.23604   0.94575   0.00000  Uiso   1.00
C206   C     0.20048   0.27957   0.94969   0.00000  Uiso   1.00
C207   C     0.20801   0.36411   0.02083   0.00000  Uiso   1.00
H208   H     0.06161   0.24682   0.04359   0.00000  Uiso   1.00
H209   H     0.04998   0.05018   0.12516   0.00000  Uiso   1.00
H210   H     0.01487   0.31077   0.89184   0.00000  Uiso   1.00
H211   H     0.11108   0.39059   0.13183   0.00000  Uiso   1.00
H212   H     0.05110   0.81473   0.18699   0.00000  Uiso   1.00
H213   H     0.97707   0.36425   0.69503   0.00000  Uiso   1.00
H214   H     0.17995   0.53258   0.20110   0.00000  Uiso   1.00
H215   H     0.16969   0.11258   0.82337   0.00000  Uiso   1.00
H216   H     0.16399   0.90856   0.89286   0.00000  Uiso   1.00
H217   H     0.12888   0.16916   0.65954   0.00000  Uiso   1.00
H218   H     0.22509   0.24898   0.89953   0.00000  Uiso   1.00
H219   H     0.14363   0.69979   0.99845   0.00000  Uiso   1.00
H220   H     0.06960   0.24932   0.50648   0.00000  Uiso   1.00
H221   H     0.27248   0.41763   0.01255   0.00000  Uiso   1.00
O222   O     0.09165   0.62547   0.14238   0.00000  Uiso   1.00
O223   O     0.99454   0.34644   0.49695   0.00000  Uiso   1.00
O224   O     0.26071   0.56727   0.16090   0.00000  Uiso   1.00
N225   N     0.07366   0.81568   0.13309   0.00000  Uiso   1.00
N226   N     0.00445   0.32944   0.67314   0.00000  Uiso   1.00
N227   N     0.19412   0.48683   0.14625   0.00000  Uiso   1.00
N228   N     0.12345   0.75384   0.03164   0.00000  Uiso   1.00
N229   N     0.05424   0.26759   0.57169   0.00000  Uiso   1.00
N230   N     0.24391   0.42498   0.04480   0.00000  Uiso   1.00
C231   C     0.11124   0.64224   0.46353   0.00000  Uiso   1.00
C232   C     0.12639   0.76406   0.45963   0.00000  Uiso   1.00
C233   C     0.12396   0.83500   0.37541   0.00000  Uiso   1.00
C234   C     0.13955   0.94346   0.38731   0.00000  Uiso   1.00
C235   C     0.16042   0.12714   0.36716   0.00000  Uiso   1.00
C236   C     0.08014   0.63606   0.55214   0.00000  Uiso   1.00
C237   C     0.03881   0.59937   0.54569   0.00000  Uiso   1.00
C238   C     0.01547   0.60007   0.63547   0.00000  Uiso   1.00
C239   C     0.96454   0.58495   0.75895   0.00000  Uiso   1.00
C240   C     0.14913   0.57216   0.49594   0.00000  Uiso   1.00
C241   C     0.16581   0.48171   0.44225   0.00000  Uiso   1.00
C242   C     0.20055   0.42859   0.48473   0.00000  Uiso   1.00
C243   C     0.25673   0.31425   0.52095   0.00000  Uiso   1.00
C244   C     0.14326   0.70871   0.63444   0.00000  Uiso   1.00
C245   C     0.14379   0.80016   0.55247   0.00000  Uiso   1.00
C246   C     0.15939   0.90854   0.56450   0.00000  Uiso   1.00
C247   C     0.15698   0.97963   0.48031   0.00000  Uiso   1.00
C248   C     0.09753   0.67216   0.64497   0.00000  Uiso   1.00
C249   C     0.07425   0.67291   0.73478   0.00000  Uiso   1.00
C250   C     0.03290   0.63624   0.72847   0.00000  Uiso   1.00
C251   C     0.16653   0.60826   0.58877   0.00000  Uiso   1.00
C252   C     0.20124   0.55526   0.63135   0.00000  Uiso   1.00
C253   C     0.21798   0.46476   0.57773   0.00000  Uiso   1.00
H254   H     0.09769   0.61413   0.39126   0.00000  Uiso   1.00
H255   H     0.11049   0.80703   0.30358   0.00000  Uiso   1.00
H256   H     0.02536   0.57143   0.47384   0.00000  Uiso   1.00
H257   H     0.15234   0.45380   0.37042   0.00000  Uiso   1.00
H258   H     0.13234   0.03683   0.24733   0.00000  Uiso   1.00
H259   H     0.95284   0.54001   0.60633   0.00000  Uiso   1.00
H260   H     0.22060   0.29196   0.38825   0.00000  Uiso   1.00
H261   H     0.15681   0.73682   0.70672   0.00000  Uiso   1.00
H262   H     0.17285   0.93646   0.63635   0.00000  Uiso   1.00
H263   H     0.08772   0.70085   0.80661   0.00000  Uiso   1.00
H264   H     0.21470   0.58322   0.70319   0.00000  Uiso   1.00
H265   H     0.18295   0.14188   0.51742   0.00000  Uiso   1.00
H266   H     0.00345   0.64505   0.87642   0.00000  Uiso   1.00
H267   H     0.27121   0.39700   0.65834   0.00000  Uiso   1.00
O268   O     0.16712   0.21849   0.33040   0.00000  Uiso   1.00
O269   O     0.93163   0.56665   0.80140   0.00000  Uiso   1.00
O270   O     0.28292   0.24122   0.51528   0.00000  Uiso   1.00
N271   N     0.14206   0.03415   0.32054   0.00000  Uiso   1.00
N272   N     0.97423   0.56967   0.65619   0.00000  Uiso   1.00
N273   N     0.22456   0.33774   0.45231   0.00000  Uiso   1.00
N274   N     0.16929   0.09068   0.46588   0.00000  Uiso   1.00
N275   N     0.00147   0.62620   0.80152   0.00000  Uiso   1.00
N276   N     0.25179   0.39427   0.59764   0.00000  Uiso   1.00
C277   C     0.91363   0.78394   0.49314   0.00000  Uiso   1.00
C278   C     0.90496   0.90939   0.50693   0.00000  Uiso   1.00
C279   C     0.92541   0.98043   0.57502   0.00000  Uiso   1.00
C280   C     0.91292   0.09250   0.57603   0.00000  Uiso   1.00
C281   C     0.90431   0.28130   0.60726   0.00000  Uiso   1.00
C282   C     0.92404   0.76782   0.38016   0.00000  Uiso   1.00
C283   C     0.96053   0.71980   0.34167   0.00000  Uiso   1.00
C284   C     0.96409   0.71268   0.23596   0.00000  Uiso   1.00
C285   C     0.98509   0.68161   0.07038   0.00000  Uiso   1.00
C286   C     0.87176   0.72446   0.51056   0.00000  Uiso   1.00
C287   C     0.86430   0.63995   0.58170   0.00000  Uiso   1.00
C288   C     0.82386   0.59631   0.58575   0.00000  Uiso   1.00
C289   C     0.76369   0.49791   0.62264   0.00000  Uiso   1.00
C290   C     0.85507   0.85667   0.37383   0.00000  Uiso   1.00
C291   C     0.87315   0.94889   0.44212   0.00000  Uiso   1.00
C292   C     0.86062   0.06089   0.44302   0.00000  Uiso   1.00
C293   C     0.88105   0.13208   0.51111   0.00000  Uiso   1.00
C294   C     0.89223   0.80732   0.31535   0.00000  Uiso   1.00
C295   C     0.89574   0.80026   0.20967   0.00000  Uiso   1.00
C296   C     0.93223   0.75226   0.17103   0.00000  Uiso   1.00
C297   C     0.83996   0.76396   0.44575   0.00000  Uiso   1.00
C298   C     0.79952   0.72043   0.44969   0.00000  Uiso   1.00
C299   C     0.79199   0.63589   0.52083   0.00000  Uiso   1.00
H300   H     0.93839   0.75318   0.54359   0.00000  Uiso   1.00
H301   H     0.95002   0.94982   0.62516   0.00000  Uiso   1.00
H302   H     0.98513   0.68923   0.39184   0.00000  Uiso   1.00
H303   H     0.88892   0.60941   0.63183   0.00000  Uiso   1.00
H304   H     0.94890   0.18527   0.68699   0.00000  Uiso   1.00
H305   H     0.02293   0.63575   0.19503   0.00000  Uiso   1.00
H306   H     0.82005   0.46742   0.70110   0.00000  Uiso   1.00
H307   H     0.83031   0.88742   0.32337   0.00000  Uiso   1.00
H308   H     0.83601   0.09144   0.39286   0.00000  Uiso   1.00
H309   H     0.87112   0.83084   0.15954   0.00000  Uiso   1.00
H310   H     0.77491   0.75102   0.39953   0.00000  Uiso   1.00
H311   H     0.85637   0.30021   0.49845   0.00000  Uiso   1.00
H312   H     0.93040   0.75068   0.00648   0.00000  Uiso   1.00
H313   H     0.72752   0.58237   0.51255   0.00000  Uiso   1.00
O314   O     0.90835   0.37453   0.64238   0.00000  Uiso   1.00
O315   O     0.00546   0.65356   0.99695   0.00000  Uiso   1.00
O316   O     0.73929   0.43273   0.66090   0.00000  Uiso   1.00
N317   N     0.92634   0.18432   0.63309   0.00000  Uiso   1.00
N318   N     0.99555   0.67056   0.17314   0.00000  Uiso   1.00
N319   N     0.80588   0.51317   0.64625   0.00000  Uiso   1.00
N320   N     0.87655   0.24616   0.53164   0.00000  Uiso   1.00
N321   N     0.94576   0.73241   0.07169   0.00000  Uiso   1.00
N322   N     0.75609   0.57502   0.54480   0.00000  Uiso   1.00
C323   C     0.88876   0.35776   0.96353   0.00000  Uiso   1.00
C324   C     0.87361   0.23594   0.95963   0.00000  Uiso   1.00
C325   C     0.87604   0.16500   0.87541   0.00000  Uiso   1.00
C326   C     0.86045   0.05654   0.88731   0.00000  Uiso   1.00
C327   C     0.83958   0.87286   0.86716   0.00000  Uiso   1.00
C328   C     0.91986   0.36394   0.05214   0.00000  Uiso   1.00
C329   C     0.96119   0.40063   0.04569   0.00000  Uiso   1.00
C330   C     0.98453   0.39993   0.13547   0.00000  Uiso   1.00
C331   C     0.03546   0.41505   0.25895   0.00000  Uiso   1.00
C332   C     0.85087   0.42784   0.99594   0.00000  Uiso   1.00
C333   C     0.83419   0.51829   0.94225   0.00000  Uiso   1.00
C334   C     0.79945   0.57141   0.98473   0.00000  Uiso   1.00
C335   C     0.74327   0.68575   0.02095   0.00000  Uiso   1.00
C336   C     0.85674   0.29129   0.13444   0.00000  Uiso   1.00
C337   C     0.85621   0.19984   0.05247   0.00000  Uiso   1.00
C338   C     0.84061   0.09146   0.06450   0.00000  Uiso   1.00
C339   C     0.84302   0.02037   0.98031   0.00000  Uiso   1.00
C340   C     0.90247   0.32784   0.14497   0.00000  Uiso   1.00
C341   C     0.92575   0.32709   0.23478   0.00000  Uiso   1.00
C342   C     0.96710   0.36376   0.22847   0.00000  Uiso   1.00
C343   C     0.83347   0.39174   0.08877   0.00000  Uiso   1.00
C344   C     0.79876   0.44474   0.13135   0.00000  Uiso   1.00
C345   C     0.78202   0.53524   0.07773   0.00000  Uiso   1.00
H346   H     0.90231   0.38587   0.89126   0.00000  Uiso   1.00
H347   H     0.88951   0.19297   0.80358   0.00000  Uiso   1.00
H348   H     0.97464   0.42857   0.97384   0.00000  Uiso   1.00
H349   H     0.84766   0.54620   0.87042   0.00000  Uiso   1.00
H350   H     0.86766   0.96317   0.74733   0.00000  Uiso   1.00
H351   H     0.04716   0.45999   0.10633   0.00000  Uiso   1.00
H352   H     0.77940   0.70804   0.88825   0.00000  Uiso   1.00
H353   H     0.84319   0.26318   0.20672   0.00000  Uiso   1.00
H354   H     0.82715   0.06354   0.13635   0.00000  Uiso   1.00
H355   H     0.91228   0.29915   0.30661   0.00000  Uiso   1.00
H356   H     0.78530   0.41678   0.20319   0.00000  Uiso   1.00
H357   H     0.81705   0.85812   0.01742   0.00000  Uiso   1.00
H358   H     0.99655   0.35495   0.37642   0.00000  Uiso   1.00
H359   H     0.72879   0.60300   0.15834   0.00000  Uiso   1.00
O360   O     0.83288   0.78151   0.83040   0.00000  Uiso   1.00
O361   O     0.06837   0.43335   0.30140   0.00000  Uiso   1.00
O362   O     0.71708   0.75878   0.01528   0.00000  Uiso   1.00
N363   N     0.85794   0.96585   0.82054   0.00000  Uiso   1.00
N364   N     0.02577   0.43033   0.15619   0.00000  Uiso   1.00
N365   N     0.77544   0.66226   0.95231   0.00000  Uiso   1.00
N366   N     0.83071   0.90932   0.96588   0.00000  Uiso   1.00
N367   N     0.99853   0.37380   0.30152   0.00000  Uiso   1.00
N368   N     0.74821   0.60573   0.09764   0.00000  Uiso   1.00
