data_job_05245
_audit_creation_date              2018-12-19
_audit_creation_method            'Materials Studio'
_symmetry_space_group_name_H-M    'P1'
_symmetry_Int_Tables_number       1
_symmetry_cell_setting            triclinic
loop_
_symmetry_equiv_pos_as_xyz
  x,y,z
_cell_length_a                    27.1494
_cell_length_b                    12.2813
_cell_length_c                    15.3819
_cell_angle_alpha                 90.0000
_cell_angle_beta                  90.0000
_cell_angle_gamma                 90.0000
loop_
_atom_site_label
_atom_site_type_symbol
_atom_site_fract_x
_atom_site_fract_y
_atom_site_fract_z
_atom_site_U_iso_or_equiv
_atom_site_adp_type
_atom_site_occupancy
C1     C     0.84981   0.85750   0.62120   0.00000  Uiso   1.00
C2     C     0.80086   0.81978   0.65938   0.00000  Uiso   1.00
C3     C     0.75482   0.86122   0.63840   0.00000  Uiso   1.00
C4     C     0.71453   0.81577   0.68051   0.00000  Uiso   1.00
C5     C     0.63768   0.77000   0.73057   0.00000  Uiso   1.00
C6     C     0.88172   0.89062   0.69838   0.00000  Uiso   1.00
C7     C     0.90366   0.99161   0.71018   0.00000  Uiso   1.00
C8     C     0.93144   0.00577   0.78512   0.00000  Uiso   1.00
C9     C     0.98015   0.06995   0.89569   0.00000  Uiso   1.00
C10    C     0.87392   0.75629   0.58265   0.00000  Uiso   1.00
C11    C     0.88933   0.74435   0.49715   0.00000  Uiso   1.00
C12    C     0.91056   0.64543   0.47465   0.00000  Uiso   1.00
C13    C     0.94717   0.50105   0.40554   0.00000  Uiso   1.00
C14    C     0.86014   0.70309   0.73329   0.00000  Uiso   1.00
C15    C     0.80647   0.73591   0.72027   0.00000  Uiso   1.00
C16    C     0.76624   0.69038   0.76242   0.00000  Uiso   1.00
C17    C     0.72015   0.73174   0.74150   0.00000  Uiso   1.00
C18    C     0.88733   0.80675   0.75926   0.00000  Uiso   1.00
C19    C     0.91509   0.82077   0.83420   0.00000  Uiso   1.00
C20    C     0.93706   0.92175   0.84611   0.00000  Uiso   1.00
C21    C     0.87954   0.67242   0.64353   0.00000  Uiso   1.00
C22    C     0.90075   0.57350   0.62116   0.00000  Uiso   1.00
C23    C     0.91618   0.56141   0.53565   0.00000  Uiso   1.00
H24    H     0.84544   0.92280   0.57380   0.00000  Uiso   1.00
H25    H     0.75049   0.92613   0.59129   0.00000  Uiso   1.00
H26    H     0.89931   0.05649   0.66305   0.00000  Uiso   1.00
H27    H     0.88498   0.80927   0.45005   0.00000  Uiso   1.00
H28    H     0.64769   0.89287   0.63755   0.00000  Uiso   1.00
H29    H     0.96151   0.16773   0.78885   0.00000  Uiso   1.00
H30    H     0.93129   0.64641   0.33970   0.00000  Uiso   1.00
H31    H     0.86451   0.63779   0.78069   0.00000  Uiso   1.00
H32    H     0.77060   0.62548   0.80953   0.00000  Uiso   1.00
H33    H     0.91942   0.75584   0.88129   0.00000  Uiso   1.00
H34    H     0.90509   0.50862   0.66829   0.00000  Uiso   1.00
H35    H     0.66401   0.64885   0.81469   0.00000  Uiso   1.00
H36    H     0.97783   0.92371   0.96599   0.00000  Uiso   1.00
H37    H     0.94761   0.40239   0.51684   0.00000  Uiso   1.00
O38    O     0.59374   0.76793   0.74138   0.00000  Uiso   1.00
O39    O     0.00546   0.12853   0.93987   0.00000  Uiso   1.00
O40    O     0.96580   0.44457   0.35060   0.00000  Uiso   1.00
N41    N     0.66442   0.83711   0.67527   0.00000  Uiso   1.00
N42    N     0.95781   0.09410   0.81673   0.00000  Uiso   1.00
N43    N     0.92957   0.60672   0.39682   0.00000  Uiso   1.00
N44    N     0.67320   0.70581   0.77058   0.00000  Uiso   1.00
N45    N     0.96660   0.96279   0.91205   0.00000  Uiso   1.00
N46    N     0.93835   0.47541   0.49213   0.00000  Uiso   1.00
C47    C     0.65019   0.64250   0.12120   0.00000  Uiso   1.00
C48    C     0.69914   0.68022   0.15938   0.00000  Uiso   1.00
C49    C     0.74518   0.63878   0.13840   0.00000  Uiso   1.00
C50    C     0.78547   0.68423   0.18051   0.00000  Uiso   1.00
C51    C     0.86232   0.73000   0.23057   0.00000  Uiso   1.00
C52    C     0.61828   0.60938   0.19838   0.00000  Uiso   1.00
C53    C     0.59634   0.50839   0.21018   0.00000  Uiso   1.00
C54    C     0.56856   0.49423   0.28512   0.00000  Uiso   1.00
C55    C     0.51985   0.43005   0.39569   0.00000  Uiso   1.00
C56    C     0.62608   0.74371   0.08265   0.00000  Uiso   1.00
C57    C     0.61067   0.75565   0.99715   0.00000  Uiso   1.00
C58    C     0.58944   0.85457   0.97465   0.00000  Uiso   1.00
C59    C     0.55283   0.99895   0.90554   0.00000  Uiso   1.00
C60    C     0.63986   0.79691   0.23329   0.00000  Uiso   1.00
C61    C     0.69353   0.76409   0.22027   0.00000  Uiso   1.00
C62    C     0.73376   0.80962   0.26242   0.00000  Uiso   1.00
C63    C     0.77985   0.76826   0.24150   0.00000  Uiso   1.00
C64    C     0.61267   0.69325   0.25926   0.00000  Uiso   1.00
C65    C     0.58491   0.67923   0.33420   0.00000  Uiso   1.00
C66    C     0.56294   0.57825   0.34611   0.00000  Uiso   1.00
C67    C     0.62046   0.82758   0.14353   0.00000  Uiso   1.00
C68    C     0.59925   0.92650   0.12116   0.00000  Uiso   1.00
C69    C     0.58382   0.93859   0.03565   0.00000  Uiso   1.00
H70    H     0.65456   0.57720   0.07380   0.00000  Uiso   1.00
H71    H     0.74951   0.57387   0.09129   0.00000  Uiso   1.00
H72    H     0.60069   0.44351   0.16305   0.00000  Uiso   1.00
H73    H     0.61502   0.69073   0.95005   0.00000  Uiso   1.00
H74    H     0.85231   0.60713   0.13755   0.00000  Uiso   1.00
H75    H     0.53849   0.33227   0.28885   0.00000  Uiso   1.00
H76    H     0.56871   0.85359   0.83970   0.00000  Uiso   1.00
H77    H     0.63549   0.86221   0.28069   0.00000  Uiso   1.00
H78    H     0.72940   0.87452   0.30953   0.00000  Uiso   1.00
H79    H     0.58058   0.74416   0.38129   0.00000  Uiso   1.00
H80    H     0.59491   0.99138   0.16829   0.00000  Uiso   1.00
H81    H     0.83599   0.85115   0.31469   0.00000  Uiso   1.00
H82    H     0.52217   0.57629   0.46599   0.00000  Uiso   1.00
H83    H     0.55239   0.09761   0.01684   0.00000  Uiso   1.00
O84    O     0.90626   0.73207   0.24138   0.00000  Uiso   1.00
O85    O     0.49454   0.37147   0.43987   0.00000  Uiso   1.00
O86    O     0.53420   0.05543   0.85060   0.00000  Uiso   1.00
N87    N     0.83558   0.66289   0.17527   0.00000  Uiso   1.00
N88    N     0.54219   0.40590   0.31673   0.00000  Uiso   1.00
N89    N     0.57043   0.89328   0.89682   0.00000  Uiso   1.00
N90    N     0.82680   0.79419   0.27058   0.00000  Uiso   1.00
N91    N     0.53340   0.53721   0.41205   0.00000  Uiso   1.00
N92    N     0.56165   0.02459   0.99213   0.00000  Uiso   1.00
C93    C     0.15019   0.85750   0.87880   0.00000  Uiso   1.00
C94    C     0.19914   0.81978   0.84062   0.00000  Uiso   1.00
C95    C     0.24518   0.86122   0.86160   0.00000  Uiso   1.00
C96    C     0.28547   0.81577   0.81949   0.00000  Uiso   1.00
C97    C     0.36232   0.77000   0.76943   0.00000  Uiso   1.00
C98    C     0.11828   0.89062   0.80162   0.00000  Uiso   1.00
C99    C     0.09634   0.99161   0.78982   0.00000  Uiso   1.00
C100   C     0.06856   0.00577   0.71488   0.00000  Uiso   1.00
C101   C     0.01985   0.06995   0.60431   0.00000  Uiso   1.00
C102   C     0.12608   0.75629   0.91735   0.00000  Uiso   1.00
C103   C     0.11067   0.74435   0.00285   0.00000  Uiso   1.00
C104   C     0.08944   0.64543   0.02535   0.00000  Uiso   1.00
C105   C     0.05283   0.50105   0.09446   0.00000  Uiso   1.00
C106   C     0.13986   0.70309   0.76671   0.00000  Uiso   1.00
C107   C     0.19353   0.73591   0.77973   0.00000  Uiso   1.00
C108   C     0.23376   0.69038   0.73758   0.00000  Uiso   1.00
C109   C     0.27985   0.73174   0.75850   0.00000  Uiso   1.00
C110   C     0.11267   0.80675   0.74074   0.00000  Uiso   1.00
C111   C     0.08491   0.82077   0.66580   0.00000  Uiso   1.00
C112   C     0.06294   0.92175   0.65389   0.00000  Uiso   1.00
C113   C     0.12046   0.67242   0.85647   0.00000  Uiso   1.00
C114   C     0.09925   0.57350   0.87884   0.00000  Uiso   1.00
C115   C     0.08382   0.56141   0.96435   0.00000  Uiso   1.00
H116   H     0.15456   0.92280   0.92620   0.00000  Uiso   1.00
H117   H     0.24951   0.92613   0.90871   0.00000  Uiso   1.00
H118   H     0.10069   0.05649   0.83695   0.00000  Uiso   1.00
H119   H     0.11502   0.80927   0.04995   0.00000  Uiso   1.00
H120   H     0.35231   0.89287   0.86245   0.00000  Uiso   1.00
H121   H     0.03849   0.16773   0.71115   0.00000  Uiso   1.00
H122   H     0.06871   0.64641   0.16030   0.00000  Uiso   1.00
H123   H     0.13549   0.63779   0.71931   0.00000  Uiso   1.00
H124   H     0.22940   0.62548   0.69047   0.00000  Uiso   1.00
H125   H     0.08058   0.75584   0.61871   0.00000  Uiso   1.00
H126   H     0.09491   0.50862   0.83171   0.00000  Uiso   1.00
H127   H     0.33599   0.64885   0.68531   0.00000  Uiso   1.00
H128   H     0.02217   0.92371   0.53401   0.00000  Uiso   1.00
H129   H     0.05239   0.40239   0.98316   0.00000  Uiso   1.00
O130   O     0.40626   0.76793   0.75862   0.00000  Uiso   1.00
O131   O     0.99454   0.12853   0.56013   0.00000  Uiso   1.00
O132   O     0.03420   0.44457   0.14940   0.00000  Uiso   1.00
N133   N     0.33558   0.83711   0.82473   0.00000  Uiso   1.00
N134   N     0.04219   0.09410   0.68327   0.00000  Uiso   1.00
N135   N     0.07043   0.60672   0.10318   0.00000  Uiso   1.00
N136   N     0.32680   0.70581   0.72942   0.00000  Uiso   1.00
N137   N     0.03340   0.96279   0.58795   0.00000  Uiso   1.00
N138   N     0.06165   0.47541   0.00787   0.00000  Uiso   1.00
C139   C     0.34981   0.64250   0.37880   0.00000  Uiso   1.00
C140   C     0.30086   0.68022   0.34062   0.00000  Uiso   1.00
C141   C     0.25482   0.63878   0.36160   0.00000  Uiso   1.00
C142   C     0.21453   0.68423   0.31949   0.00000  Uiso   1.00
C143   C     0.13768   0.73000   0.26943   0.00000  Uiso   1.00
C144   C     0.38172   0.60938   0.30162   0.00000  Uiso   1.00
C145   C     0.40366   0.50839   0.28982   0.00000  Uiso   1.00
C146   C     0.43144   0.49423   0.21488   0.00000  Uiso   1.00
C147   C     0.48015   0.43005   0.10431   0.00000  Uiso   1.00
C148   C     0.37392   0.74371   0.41735   0.00000  Uiso   1.00
C149   C     0.38933   0.75565   0.50285   0.00000  Uiso   1.00
C150   C     0.41056   0.85457   0.52535   0.00000  Uiso   1.00
C151   C     0.44717   0.99895   0.59446   0.00000  Uiso   1.00
C152   C     0.36014   0.79691   0.26671   0.00000  Uiso   1.00
C153   C     0.30647   0.76409   0.27973   0.00000  Uiso   1.00
C154   C     0.26624   0.80962   0.23758   0.00000  Uiso   1.00
C155   C     0.22015   0.76826   0.25850   0.00000  Uiso   1.00
C156   C     0.38733   0.69325   0.24074   0.00000  Uiso   1.00
C157   C     0.41509   0.67923   0.16580   0.00000  Uiso   1.00
C158   C     0.43706   0.57825   0.15389   0.00000  Uiso   1.00
C159   C     0.37954   0.82758   0.35647   0.00000  Uiso   1.00
C160   C     0.40075   0.92650   0.37884   0.00000  Uiso   1.00
C161   C     0.41618   0.93859   0.46435   0.00000  Uiso   1.00
H162   H     0.34544   0.57720   0.42620   0.00000  Uiso   1.00
H163   H     0.25049   0.57387   0.40871   0.00000  Uiso   1.00
H164   H     0.39931   0.44351   0.33695   0.00000  Uiso   1.00
H165   H     0.38498   0.69073   0.54995   0.00000  Uiso   1.00
H166   H     0.14769   0.60713   0.36245   0.00000  Uiso   1.00
H167   H     0.46151   0.33227   0.21115   0.00000  Uiso   1.00
H168   H     0.43129   0.85359   0.66030   0.00000  Uiso   1.00
H169   H     0.36451   0.86221   0.21931   0.00000  Uiso   1.00
H170   H     0.27060   0.87452   0.19047   0.00000  Uiso   1.00
H171   H     0.41942   0.74416   0.11871   0.00000  Uiso   1.00
H172   H     0.40509   0.99138   0.33171   0.00000  Uiso   1.00
H173   H     0.16401   0.85115   0.18531   0.00000  Uiso   1.00
H174   H     0.47783   0.57629   0.03401   0.00000  Uiso   1.00
H175   H     0.44761   0.09761   0.48316   0.00000  Uiso   1.00
O176   O     0.09374   0.73207   0.25862   0.00000  Uiso   1.00
O177   O     0.50546   0.37147   0.06013   0.00000  Uiso   1.00
O178   O     0.46580   0.05543   0.64940   0.00000  Uiso   1.00
N179   N     0.16442   0.66289   0.32473   0.00000  Uiso   1.00
N180   N     0.45781   0.40590   0.18327   0.00000  Uiso   1.00
N181   N     0.42957   0.89328   0.60318   0.00000  Uiso   1.00
N182   N     0.17320   0.79419   0.22942   0.00000  Uiso   1.00
N183   N     0.46660   0.53721   0.08795   0.00000  Uiso   1.00
N184   N     0.43835   0.02459   0.50787   0.00000  Uiso   1.00
C185   C     0.15019   0.14250   0.37880   0.00000  Uiso   1.00
C186   C     0.19914   0.18022   0.34062   0.00000  Uiso   1.00
C187   C     0.24518   0.13878   0.36160   0.00000  Uiso   1.00
C188   C     0.28547   0.18423   0.31949   0.00000  Uiso   1.00
C189   C     0.36232   0.23000   0.26943   0.00000  Uiso   1.00
C190   C     0.11828   0.10938   0.30162   0.00000  Uiso   1.00
C191   C     0.09634   0.00839   0.28982   0.00000  Uiso   1.00
C192   C     0.06856   0.99423   0.21488   0.00000  Uiso   1.00
C193   C     0.01985   0.93005   0.10431   0.00000  Uiso   1.00
C194   C     0.12608   0.24371   0.41735   0.00000  Uiso   1.00
C195   C     0.11067   0.25565   0.50285   0.00000  Uiso   1.00
C196   C     0.08944   0.35457   0.52535   0.00000  Uiso   1.00
C197   C     0.05283   0.49895   0.59446   0.00000  Uiso   1.00
C198   C     0.13986   0.29691   0.26671   0.00000  Uiso   1.00
C199   C     0.19353   0.26409   0.27973   0.00000  Uiso   1.00
C200   C     0.23376   0.30962   0.23758   0.00000  Uiso   1.00
C201   C     0.27985   0.26826   0.25850   0.00000  Uiso   1.00
C202   C     0.11267   0.19325   0.24074   0.00000  Uiso   1.00
C203   C     0.08491   0.17923   0.16580   0.00000  Uiso   1.00
C204   C     0.06294   0.07825   0.15389   0.00000  Uiso   1.00
C205   C     0.12046   0.32758   0.35647   0.00000  Uiso   1.00
C206   C     0.09925   0.42650   0.37884   0.00000  Uiso   1.00
C207   C     0.08382   0.43859   0.46435   0.00000  Uiso   1.00
H208   H     0.15456   0.07720   0.42620   0.00000  Uiso   1.00
H209   H     0.24951   0.07387   0.40871   0.00000  Uiso   1.00
H210   H     0.10069   0.94351   0.33695   0.00000  Uiso   1.00
H211   H     0.11502   0.19073   0.54995   0.00000  Uiso   1.00
H212   H     0.35231   0.10713   0.36245   0.00000  Uiso   1.00
H213   H     0.03849   0.83227   0.21115   0.00000  Uiso   1.00
H214   H     0.06871   0.35359   0.66030   0.00000  Uiso   1.00
H215   H     0.13549   0.36221   0.21931   0.00000  Uiso   1.00
H216   H     0.22940   0.37452   0.19047   0.00000  Uiso   1.00
H217   H     0.08058   0.24416   0.11871   0.00000  Uiso   1.00
H218   H     0.09491   0.49138   0.33171   0.00000  Uiso   1.00
H219   H     0.33599   0.35115   0.18531   0.00000  Uiso   1.00
H220   H     0.02217   0.07629   0.03401   0.00000  Uiso   1.00
H221   H     0.05239   0.59761   0.48316   0.00000  Uiso   1.00
O222   O     0.40626   0.23207   0.25862   0.00000  Uiso   1.00
O223   O     0.99454   0.87147   0.06013   0.00000  Uiso   1.00
O224   O     0.03420   0.55543   0.64940   0.00000  Uiso   1.00
N225   N     0.33558   0.16289   0.32473   0.00000  Uiso   1.00
N226   N     0.04219   0.90590   0.18327   0.00000  Uiso   1.00
N227   N     0.07043   0.39328   0.60318   0.00000  Uiso   1.00
N228   N     0.32680   0.29419   0.22942   0.00000  Uiso   1.00
N229   N     0.03340   0.03721   0.08795   0.00000  Uiso   1.00
N230   N     0.06165   0.52459   0.50787   0.00000  Uiso   1.00
C231   C     0.34981   0.35750   0.87880   0.00000  Uiso   1.00
C232   C     0.30086   0.31978   0.84062   0.00000  Uiso   1.00
C233   C     0.25482   0.36122   0.86160   0.00000  Uiso   1.00
C234   C     0.21453   0.31577   0.81949   0.00000  Uiso   1.00
C235   C     0.13768   0.27000   0.76943   0.00000  Uiso   1.00
C236   C     0.38172   0.39062   0.80162   0.00000  Uiso   1.00
C237   C     0.40366   0.49161   0.78982   0.00000  Uiso   1.00
C238   C     0.43144   0.50577   0.71488   0.00000  Uiso   1.00
C239   C     0.48015   0.56995   0.60431   0.00000  Uiso   1.00
C240   C     0.37392   0.25629   0.91735   0.00000  Uiso   1.00
C241   C     0.38933   0.24435   0.00285   0.00000  Uiso   1.00
C242   C     0.41056   0.14543   0.02535   0.00000  Uiso   1.00
C243   C     0.44717   0.00105   0.09446   0.00000  Uiso   1.00
C244   C     0.36014   0.20309   0.76671   0.00000  Uiso   1.00
C245   C     0.30647   0.23591   0.77973   0.00000  Uiso   1.00
C246   C     0.26624   0.19038   0.73758   0.00000  Uiso   1.00
C247   C     0.22015   0.23174   0.75850   0.00000  Uiso   1.00
C248   C     0.38733   0.30675   0.74074   0.00000  Uiso   1.00
C249   C     0.41509   0.32077   0.66580   0.00000  Uiso   1.00
C250   C     0.43706   0.42175   0.65389   0.00000  Uiso   1.00
C251   C     0.37954   0.17242   0.85647   0.00000  Uiso   1.00
C252   C     0.40075   0.07350   0.87884   0.00000  Uiso   1.00
C253   C     0.41618   0.06141   0.96435   0.00000  Uiso   1.00
H254   H     0.34544   0.42280   0.92620   0.00000  Uiso   1.00
H255   H     0.25049   0.42613   0.90871   0.00000  Uiso   1.00
H256   H     0.39931   0.55649   0.83695   0.00000  Uiso   1.00
H257   H     0.38498   0.30927   0.04995   0.00000  Uiso   1.00
H258   H     0.14769   0.39287   0.86245   0.00000  Uiso   1.00
H259   H     0.46151   0.66773   0.71115   0.00000  Uiso   1.00
H260   H     0.43129   0.14641   0.16030   0.00000  Uiso   1.00
H261   H     0.36451   0.13779   0.71931   0.00000  Uiso   1.00
H262   H     0.27060   0.12548   0.69047   0.00000  Uiso   1.00
H263   H     0.41942   0.25584   0.61871   0.00000  Uiso   1.00
H264   H     0.40509   0.00862   0.83171   0.00000  Uiso   1.00
H265   H     0.16401   0.14885   0.68531   0.00000  Uiso   1.00
H266   H     0.47783   0.42371   0.53401   0.00000  Uiso   1.00
H267   H     0.44761   0.90239   0.98316   0.00000  Uiso   1.00
O268   O     0.09374   0.26793   0.75862   0.00000  Uiso   1.00
O269   O     0.50546   0.62853   0.56013   0.00000  Uiso   1.00
O270   O     0.46580   0.94457   0.14940   0.00000  Uiso   1.00
N271   N     0.16442   0.33711   0.82473   0.00000  Uiso   1.00
N272   N     0.45781   0.59410   0.68327   0.00000  Uiso   1.00
N273   N     0.42957   0.10672   0.10318   0.00000  Uiso   1.00
N274   N     0.17320   0.20581   0.72942   0.00000  Uiso   1.00
N275   N     0.46660   0.46279   0.58795   0.00000  Uiso   1.00
N276   N     0.43835   0.97541   0.00787   0.00000  Uiso   1.00
C277   C     0.84981   0.14250   0.12120   0.00000  Uiso   1.00
C278   C     0.80086   0.18022   0.15938   0.00000  Uiso   1.00
C279   C     0.75482   0.13878   0.13840   0.00000  Uiso   1.00
C280   C     0.71453   0.18423   0.18051   0.00000  Uiso   1.00
C281   C     0.63768   0.23000   0.23057   0.00000  Uiso   1.00
C282   C     0.88172   0.10938   0.19838   0.00000  Uiso   1.00
C283   C     0.90366   0.00839   0.21018   0.00000  Uiso   1.00
C284   C     0.93144   0.99423   0.28512   0.00000  Uiso   1.00
C285   C     0.98015   0.93005   0.39569   0.00000  Uiso   1.00
C286   C     0.87392   0.24371   0.08265   0.00000  Uiso   1.00
C287   C     0.88933   0.25565   0.99715   0.00000  Uiso   1.00
C288   C     0.91056   0.35457   0.97465   0.00000  Uiso   1.00
C289   C     0.94717   0.49895   0.90554   0.00000  Uiso   1.00
C290   C     0.86014   0.29691   0.23329   0.00000  Uiso   1.00
C291   C     0.80647   0.26409   0.22027   0.00000  Uiso   1.00
C292   C     0.76624   0.30962   0.26242   0.00000  Uiso   1.00
C293   C     0.72015   0.26826   0.24150   0.00000  Uiso   1.00
C294   C     0.88733   0.19325   0.25926   0.00000  Uiso   1.00
C295   C     0.91509   0.17923   0.33420   0.00000  Uiso   1.00
C296   C     0.93706   0.07825   0.34611   0.00000  Uiso   1.00
C297   C     0.87954   0.32758   0.14353   0.00000  Uiso   1.00
C298   C     0.90075   0.42650   0.12116   0.00000  Uiso   1.00
C299   C     0.91618   0.43859   0.03565   0.00000  Uiso   1.00
H300   H     0.84544   0.07720   0.07380   0.00000  Uiso   1.00
H301   H     0.75049   0.07387   0.09129   0.00000  Uiso   1.00
H302   H     0.89931   0.94351   0.16305   0.00000  Uiso   1.00
H303   H     0.88498   0.19073   0.95005   0.00000  Uiso   1.00
H304   H     0.64769   0.10713   0.13755   0.00000  Uiso   1.00
H305   H     0.96151   0.83227   0.28885   0.00000  Uiso   1.00
H306   H     0.93129   0.35359   0.83970   0.00000  Uiso   1.00
H307   H     0.86451   0.36221   0.28069   0.00000  Uiso   1.00
H308   H     0.77060   0.37452   0.30953   0.00000  Uiso   1.00
H309   H     0.91942   0.24416   0.38129   0.00000  Uiso   1.00
H310   H     0.90509   0.49138   0.16829   0.00000  Uiso   1.00
H311   H     0.66401   0.35115   0.31469   0.00000  Uiso   1.00
H312   H     0.97783   0.07629   0.46599   0.00000  Uiso   1.00
H313   H     0.94761   0.59761   0.01684   0.00000  Uiso   1.00
O314   O     0.59374   0.23207   0.24138   0.00000  Uiso   1.00
O315   O     0.00546   0.87147   0.43987   0.00000  Uiso   1.00
O316   O     0.96580   0.55543   0.85060   0.00000  Uiso   1.00
N317   N     0.66442   0.16289   0.17527   0.00000  Uiso   1.00
N318   N     0.95781   0.90590   0.31673   0.00000  Uiso   1.00
N319   N     0.92957   0.39328   0.89682   0.00000  Uiso   1.00
N320   N     0.67320   0.29419   0.27058   0.00000  Uiso   1.00
N321   N     0.96660   0.03721   0.41205   0.00000  Uiso   1.00
N322   N     0.93835   0.52459   0.99213   0.00000  Uiso   1.00
C323   C     0.65019   0.35750   0.62120   0.00000  Uiso   1.00
C324   C     0.69914   0.31978   0.65938   0.00000  Uiso   1.00
C325   C     0.74518   0.36122   0.63840   0.00000  Uiso   1.00
C326   C     0.78547   0.31577   0.68051   0.00000  Uiso   1.00
C327   C     0.86232   0.27000   0.73057   0.00000  Uiso   1.00
C328   C     0.61828   0.39062   0.69838   0.00000  Uiso   1.00
C329   C     0.59634   0.49161   0.71018   0.00000  Uiso   1.00
C330   C     0.56856   0.50577   0.78512   0.00000  Uiso   1.00
C331   C     0.51985   0.56995   0.89569   0.00000  Uiso   1.00
C332   C     0.62608   0.25629   0.58265   0.00000  Uiso   1.00
C333   C     0.61067   0.24435   0.49715   0.00000  Uiso   1.00
C334   C     0.58944   0.14543   0.47465   0.00000  Uiso   1.00
C335   C     0.55283   0.00105   0.40554   0.00000  Uiso   1.00
C336   C     0.63986   0.20309   0.73329   0.00000  Uiso   1.00
C337   C     0.69353   0.23591   0.72027   0.00000  Uiso   1.00
C338   C     0.73376   0.19038   0.76242   0.00000  Uiso   1.00
C339   C     0.77985   0.23174   0.74150   0.00000  Uiso   1.00
C340   C     0.61267   0.30675   0.75926   0.00000  Uiso   1.00
C341   C     0.58491   0.32077   0.83420   0.00000  Uiso   1.00
C342   C     0.56294   0.42175   0.84611   0.00000  Uiso   1.00
C343   C     0.62046   0.17242   0.64353   0.00000  Uiso   1.00
C344   C     0.59925   0.07350   0.62116   0.00000  Uiso   1.00
C345   C     0.58382   0.06141   0.53565   0.00000  Uiso   1.00
H346   H     0.65456   0.42280   0.57380   0.00000  Uiso   1.00
H347   H     0.74951   0.42613   0.59129   0.00000  Uiso   1.00
H348   H     0.60069   0.55649   0.66305   0.00000  Uiso   1.00
H349   H     0.61502   0.30927   0.45005   0.00000  Uiso   1.00
H350   H     0.85231   0.39287   0.63755   0.00000  Uiso   1.00
H351   H     0.53849   0.66773   0.78885   0.00000  Uiso   1.00
H352   H     0.56871   0.14641   0.33970   0.00000  Uiso   1.00
H353   H     0.63549   0.13779   0.78069   0.00000  Uiso   1.00
H354   H     0.72940   0.12548   0.80953   0.00000  Uiso   1.00
H355   H     0.58058   0.25584   0.88129   0.00000  Uiso   1.00
H356   H     0.59491   0.00862   0.66829   0.00000  Uiso   1.00
H357   H     0.83599   0.14885   0.81469   0.00000  Uiso   1.00
H358   H     0.52217   0.42371   0.96599   0.00000  Uiso   1.00
H359   H     0.55239   0.90239   0.51684   0.00000  Uiso   1.00
O360   O     0.90626   0.26793   0.74138   0.00000  Uiso   1.00
O361   O     0.49454   0.62853   0.93987   0.00000  Uiso   1.00
O362   O     0.53420   0.94457   0.35060   0.00000  Uiso   1.00
N363   N     0.83558   0.33711   0.67527   0.00000  Uiso   1.00
N364   N     0.54219   0.59410   0.81673   0.00000  Uiso   1.00
N365   N     0.57043   0.10672   0.39682   0.00000  Uiso   1.00
N366   N     0.82680   0.20581   0.77058   0.00000  Uiso   1.00
N367   N     0.53340   0.46279   0.91205   0.00000  Uiso   1.00
N368   N     0.56165   0.97541   0.49213   0.00000  Uiso   1.00
