data_job_02136
_audit_creation_date              2018-12-19
_audit_creation_method            'Materials Studio'
_symmetry_space_group_name_H-M    'P1'
_symmetry_Int_Tables_number       1
_symmetry_cell_setting            triclinic
loop_
_symmetry_equiv_pos_as_xyz
  x,y,z
_cell_length_a                    12.1252
_cell_length_b                    12.4777
_cell_length_c                    19.0950
_cell_angle_alpha                 90.0000
_cell_angle_beta                  89.0749
_cell_angle_gamma                 90.0000
loop_
_atom_site_label
_atom_site_type_symbol
_atom_site_fract_x
_atom_site_fract_y
_atom_site_fract_z
_atom_site_U_iso_or_equiv
_atom_site_adp_type
_atom_site_occupancy
C1     C     0.27994   0.37037   0.19674   0.00000  Uiso   1.00
C2     C     0.39600   0.36341   0.16510   0.00000  Uiso   1.00
C3     C     0.49320   0.38345   0.20018   0.00000  Uiso   1.00
C4     C     0.59098   0.37276   0.16198   0.00000  Uiso   1.00
C5     C     0.77112   0.36652   0.12360   0.00000  Uiso   1.00
C6     C     0.21719   0.44916   0.15113   0.00000  Uiso   1.00
C7     C     0.16404   0.54129   0.17447   0.00000  Uiso   1.00
C8     C     0.11128   0.60278   0.12451   0.00000  Uiso   1.00
C9     C     0.01375   0.72963   0.06446   0.00000  Uiso   1.00
C10    C     0.22717   0.26111   0.18475   0.00000  Uiso   1.00
C11    C     0.18239   0.19512   0.23634   0.00000  Uiso   1.00
C12    C     0.13801   0.09829   0.21468   0.00000  Uiso   1.00
C13    C     0.05598   0.93316   0.20681   0.00000  Uiso   1.00
C14    C     0.28073   0.31574   0.06652   0.00000  Uiso   1.00
C15    C     0.39642   0.33374   0.09437   0.00000  Uiso   1.00
C16    C     0.49408   0.32301   0.05610   0.00000  Uiso   1.00
C17    C     0.59141   0.34303   0.09112   0.00000  Uiso   1.00
C18    C     0.21761   0.41949   0.08040   0.00000  Uiso   1.00
C19    C     0.16491   0.48085   0.03039   0.00000  Uiso   1.00
C20    C     0.11171   0.57305   0.05365   0.00000  Uiso   1.00
C21    C     0.22760   0.23143   0.11401   0.00000  Uiso   1.00
C22    C     0.18327   0.13468   0.09226   0.00000  Uiso   1.00
C23    C     0.13844   0.06856   0.14381   0.00000  Uiso   1.00
H24    H     0.27960   0.39347   0.25181   0.00000  Uiso   1.00
H25    H     0.49284   0.40642   0.25492   0.00000  Uiso   1.00
H26    H     0.16372   0.56423   0.22922   0.00000  Uiso   1.00
H27    H     0.18207   0.21811   0.29107   0.00000  Uiso   1.00
H28    H     0.72944   0.40773   0.22717   0.00000  Uiso   1.00
H29    H     0.03543   0.74045   0.17297   0.00000  Uiso   1.00
H30    H     0.07414   0.01061   0.30342   0.00000  Uiso   1.00
H31    H     0.28106   0.29264   0.01144   0.00000  Uiso   1.00
H32    H     0.49438   0.30005   0.00136   0.00000  Uiso   1.00
H33    H     0.16526   0.45786   0.97566   0.00000  Uiso   1.00
H34    H     0.18362   0.11175   0.03752   0.00000  Uiso   1.00
H35    H     0.73069   0.32140   0.02137   0.00000  Uiso   1.00
H36    H     0.03668   0.65412   0.96718   0.00000  Uiso   1.00
H37    H     0.07539   0.92428   0.09762   0.00000  Uiso   1.00
O38    O     0.87036   0.37129   0.12197   0.00000  Uiso   1.00
O39    O     0.95984   0.80780   0.05087   0.00000  Uiso   1.00
O40    O     0.01063   0.85026   0.22201   0.00000  Uiso   1.00
N41    N     0.70046   0.38637   0.18012   0.00000  Uiso   1.00
N42    N     0.05162   0.69746   0.12945   0.00000  Uiso   1.00
N43    N     0.08778   0.01513   0.25140   0.00000  Uiso   1.00
N44    N     0.70113   0.33992   0.06938   0.00000  Uiso   1.00
N45    N     0.05229   0.65101   0.01871   0.00000  Uiso   1.00
N46    N     0.08845   0.96867   0.14066   0.00000  Uiso   1.00
C47    C     0.72006   0.87037   0.30326   0.00000  Uiso   1.00
C48    C     0.60400   0.86341   0.33490   0.00000  Uiso   1.00
C49    C     0.50680   0.88345   0.29982   0.00000  Uiso   1.00
C50    C     0.40902   0.87276   0.33802   0.00000  Uiso   1.00
C51    C     0.22888   0.86652   0.37640   0.00000  Uiso   1.00
C52    C     0.78281   0.94916   0.34887   0.00000  Uiso   1.00
C53    C     0.83596   0.04129   0.32553   0.00000  Uiso   1.00
C54    C     0.88872   0.10278   0.37549   0.00000  Uiso   1.00
C55    C     0.98625   0.22963   0.43554   0.00000  Uiso   1.00
C56    C     0.77283   0.76111   0.31525   0.00000  Uiso   1.00
C57    C     0.81761   0.69512   0.26366   0.00000  Uiso   1.00
C58    C     0.86199   0.59829   0.28532   0.00000  Uiso   1.00
C59    C     0.94402   0.43316   0.29319   0.00000  Uiso   1.00
C60    C     0.71927   0.81574   0.43348   0.00000  Uiso   1.00
C61    C     0.60358   0.83374   0.40563   0.00000  Uiso   1.00
C62    C     0.50592   0.82301   0.44390   0.00000  Uiso   1.00
C63    C     0.40859   0.84303   0.40888   0.00000  Uiso   1.00
C64    C     0.78239   0.91949   0.41960   0.00000  Uiso   1.00
C65    C     0.83509   0.98085   0.46961   0.00000  Uiso   1.00
C66    C     0.88829   0.07305   0.44635   0.00000  Uiso   1.00
C67    C     0.77240   0.73143   0.38599   0.00000  Uiso   1.00
C68    C     0.81673   0.63468   0.40774   0.00000  Uiso   1.00
C69    C     0.86156   0.56856   0.35619   0.00000  Uiso   1.00
H70    H     0.72040   0.89347   0.24819   0.00000  Uiso   1.00
H71    H     0.50716   0.90642   0.24508   0.00000  Uiso   1.00
H72    H     0.83628   0.06423   0.27078   0.00000  Uiso   1.00
H73    H     0.81793   0.71811   0.20893   0.00000  Uiso   1.00
H74    H     0.27056   0.90773   0.27283   0.00000  Uiso   1.00
H75    H     0.96457   0.24045   0.32703   0.00000  Uiso   1.00
H76    H     0.92586   0.51061   0.19658   0.00000  Uiso   1.00
H77    H     0.71894   0.79264   0.48856   0.00000  Uiso   1.00
H78    H     0.50562   0.80005   0.49864   0.00000  Uiso   1.00
H79    H     0.83474   0.95786   0.52434   0.00000  Uiso   1.00
H80    H     0.81638   0.61175   0.46248   0.00000  Uiso   1.00
H81    H     0.26931   0.82140   0.47863   0.00000  Uiso   1.00
H82    H     0.96332   0.15412   0.53282   0.00000  Uiso   1.00
H83    H     0.92461   0.42428   0.40238   0.00000  Uiso   1.00
O84    O     0.12964   0.87129   0.37803   0.00000  Uiso   1.00
O85    O     0.04016   0.30780   0.44913   0.00000  Uiso   1.00
O86    O     0.98937   0.35026   0.27799   0.00000  Uiso   1.00
N87    N     0.29954   0.88637   0.31988   0.00000  Uiso   1.00
N88    N     0.94838   0.19746   0.37055   0.00000  Uiso   1.00
N89    N     0.91222   0.51513   0.24860   0.00000  Uiso   1.00
N90    N     0.29887   0.83992   0.43062   0.00000  Uiso   1.00
N91    N     0.94771   0.15101   0.48129   0.00000  Uiso   1.00
N92    N     0.91155   0.46867   0.35934   0.00000  Uiso   1.00
C93    C     0.72006   0.62963   0.80326   0.00000  Uiso   1.00
C94    C     0.60400   0.63659   0.83490   0.00000  Uiso   1.00
C95    C     0.50680   0.61655   0.79982   0.00000  Uiso   1.00
C96    C     0.40902   0.62724   0.83802   0.00000  Uiso   1.00
C97    C     0.22888   0.63348   0.87640   0.00000  Uiso   1.00
C98    C     0.78281   0.55084   0.84887   0.00000  Uiso   1.00
C99    C     0.83596   0.45871   0.82553   0.00000  Uiso   1.00
C100   C     0.88872   0.39722   0.87549   0.00000  Uiso   1.00
C101   C     0.98625   0.27037   0.93554   0.00000  Uiso   1.00
C102   C     0.77283   0.73889   0.81525   0.00000  Uiso   1.00
C103   C     0.81761   0.80488   0.76366   0.00000  Uiso   1.00
C104   C     0.86199   0.90171   0.78532   0.00000  Uiso   1.00
C105   C     0.94402   0.06684   0.79319   0.00000  Uiso   1.00
C106   C     0.71927   0.68426   0.93348   0.00000  Uiso   1.00
C107   C     0.60358   0.66626   0.90563   0.00000  Uiso   1.00
C108   C     0.50592   0.67699   0.94390   0.00000  Uiso   1.00
C109   C     0.40859   0.65697   0.90888   0.00000  Uiso   1.00
C110   C     0.78239   0.58051   0.91960   0.00000  Uiso   1.00
C111   C     0.83509   0.51915   0.96961   0.00000  Uiso   1.00
C112   C     0.88829   0.42695   0.94635   0.00000  Uiso   1.00
C113   C     0.77240   0.76857   0.88599   0.00000  Uiso   1.00
C114   C     0.81673   0.86532   0.90774   0.00000  Uiso   1.00
C115   C     0.86156   0.93144   0.85619   0.00000  Uiso   1.00
H116   H     0.72040   0.60653   0.74819   0.00000  Uiso   1.00
H117   H     0.50716   0.59358   0.74508   0.00000  Uiso   1.00
H118   H     0.83628   0.43577   0.77078   0.00000  Uiso   1.00
H119   H     0.81793   0.78189   0.70893   0.00000  Uiso   1.00
H120   H     0.27056   0.59227   0.77283   0.00000  Uiso   1.00
H121   H     0.96457   0.25955   0.82703   0.00000  Uiso   1.00
H122   H     0.92586   0.98939   0.69658   0.00000  Uiso   1.00
H123   H     0.71894   0.70736   0.98856   0.00000  Uiso   1.00
H124   H     0.50562   0.69995   0.99864   0.00000  Uiso   1.00
H125   H     0.83474   0.54214   0.02434   0.00000  Uiso   1.00
H126   H     0.81638   0.88825   0.96248   0.00000  Uiso   1.00
H127   H     0.26931   0.67860   0.97863   0.00000  Uiso   1.00
H128   H     0.96332   0.34588   0.03282   0.00000  Uiso   1.00
H129   H     0.92461   0.07572   0.90238   0.00000  Uiso   1.00
O130   O     0.12964   0.62871   0.87803   0.00000  Uiso   1.00
O131   O     0.04016   0.19220   0.94913   0.00000  Uiso   1.00
O132   O     0.98937   0.14974   0.77799   0.00000  Uiso   1.00
N133   N     0.29954   0.61363   0.81988   0.00000  Uiso   1.00
N134   N     0.94838   0.30254   0.87055   0.00000  Uiso   1.00
N135   N     0.91222   0.98487   0.74860   0.00000  Uiso   1.00
N136   N     0.29887   0.66008   0.93062   0.00000  Uiso   1.00
N137   N     0.94771   0.34899   0.98129   0.00000  Uiso   1.00
N138   N     0.91155   0.03133   0.85934   0.00000  Uiso   1.00
C139   C     0.27994   0.12963   0.69674   0.00000  Uiso   1.00
C140   C     0.39600   0.13659   0.66510   0.00000  Uiso   1.00
C141   C     0.49320   0.11655   0.70018   0.00000  Uiso   1.00
C142   C     0.59098   0.12724   0.66198   0.00000  Uiso   1.00
C143   C     0.77112   0.13348   0.62360   0.00000  Uiso   1.00
C144   C     0.21719   0.05084   0.65113   0.00000  Uiso   1.00
C145   C     0.16404   0.95871   0.67447   0.00000  Uiso   1.00
C146   C     0.11128   0.89722   0.62451   0.00000  Uiso   1.00
C147   C     0.01375   0.77037   0.56446   0.00000  Uiso   1.00
C148   C     0.22717   0.23889   0.68475   0.00000  Uiso   1.00
C149   C     0.18239   0.30488   0.73634   0.00000  Uiso   1.00
C150   C     0.13801   0.40171   0.71468   0.00000  Uiso   1.00
C151   C     0.05598   0.56684   0.70681   0.00000  Uiso   1.00
C152   C     0.28073   0.18426   0.56652   0.00000  Uiso   1.00
C153   C     0.39642   0.16626   0.59437   0.00000  Uiso   1.00
C154   C     0.49408   0.17699   0.55610   0.00000  Uiso   1.00
C155   C     0.59141   0.15697   0.59112   0.00000  Uiso   1.00
C156   C     0.21761   0.08051   0.58040   0.00000  Uiso   1.00
C157   C     0.16491   0.01915   0.53039   0.00000  Uiso   1.00
C158   C     0.11171   0.92695   0.55365   0.00000  Uiso   1.00
C159   C     0.22760   0.26857   0.61401   0.00000  Uiso   1.00
C160   C     0.18327   0.36532   0.59226   0.00000  Uiso   1.00
C161   C     0.13844   0.43144   0.64381   0.00000  Uiso   1.00
H162   H     0.27960   0.10653   0.75181   0.00000  Uiso   1.00
H163   H     0.49284   0.09358   0.75492   0.00000  Uiso   1.00
H164   H     0.16372   0.93577   0.72922   0.00000  Uiso   1.00
H165   H     0.18207   0.28189   0.79107   0.00000  Uiso   1.00
H166   H     0.72944   0.09227   0.72717   0.00000  Uiso   1.00
H167   H     0.03543   0.75955   0.67297   0.00000  Uiso   1.00
H168   H     0.07414   0.48939   0.80342   0.00000  Uiso   1.00
H169   H     0.28106   0.20736   0.51144   0.00000  Uiso   1.00
H170   H     0.49438   0.19995   0.50136   0.00000  Uiso   1.00
H171   H     0.16526   0.04214   0.47566   0.00000  Uiso   1.00
H172   H     0.18362   0.38825   0.53752   0.00000  Uiso   1.00
H173   H     0.73069   0.17860   0.52137   0.00000  Uiso   1.00
H174   H     0.03668   0.84588   0.46718   0.00000  Uiso   1.00
H175   H     0.07539   0.57572   0.59762   0.00000  Uiso   1.00
O176   O     0.87036   0.12871   0.62197   0.00000  Uiso   1.00
O177   O     0.95984   0.69220   0.55087   0.00000  Uiso   1.00
O178   O     0.01063   0.64974   0.72201   0.00000  Uiso   1.00
N179   N     0.70046   0.11363   0.68012   0.00000  Uiso   1.00
N180   N     0.05162   0.80254   0.62945   0.00000  Uiso   1.00
N181   N     0.08778   0.48487   0.75140   0.00000  Uiso   1.00
N182   N     0.70113   0.16008   0.56938   0.00000  Uiso   1.00
N183   N     0.05229   0.84899   0.51871   0.00000  Uiso   1.00
N184   N     0.08845   0.53133   0.64066   0.00000  Uiso   1.00
