data_job_02627
_audit_creation_date              2018-12-19
_audit_creation_method            'Materials Studio'
_symmetry_space_group_name_H-M    'P1'
_symmetry_Int_Tables_number       1
_symmetry_cell_setting            triclinic
loop_
_symmetry_equiv_pos_as_xyz
  x,y,z
_cell_length_a                    19.6811
_cell_length_b                    31.3002
_cell_length_c                    9.8328
_cell_angle_alpha                 90.0000
_cell_angle_beta                  90.0000
_cell_angle_gamma                 90.0000
loop_
_atom_site_label
_atom_site_type_symbol
_atom_site_fract_x
_atom_site_fract_y
_atom_site_fract_z
_atom_site_U_iso_or_equiv
_atom_site_adp_type
_atom_site_occupancy
C1     C     0.66213   0.41377   0.17562   0.00000  Uiso   1.00
C2     C     0.73106   0.43234   0.13659   0.00000  Uiso   1.00
C3     C     0.74188   0.46546   0.04530   0.00000  Uiso   1.00
C4     C     0.80875   0.47780   0.02338   0.00000  Uiso   1.00
C5     C     0.90756   0.50968   0.95253   0.00000  Uiso   1.00
C6     C     0.66623   0.36608   0.14491   0.00000  Uiso   1.00
C7     C     0.62253   0.34350   0.06063   0.00000  Uiso   1.00
C8     C     0.63481   0.30007   0.04574   0.00000  Uiso   1.00
C9     C     0.63294   0.22908   0.98788   0.00000  Uiso   1.00
C10    C     0.65730   0.41754   0.32993   0.00000  Uiso   1.00
C11    C     0.60609   0.43822   0.40122   0.00000  Uiso   1.00
C12    C     0.61085   0.43811   0.54211   0.00000  Uiso   1.00
C13    C     0.59511   0.44702   0.77152   0.00000  Uiso   1.00
C14    C     0.76164   0.37680   0.29905   0.00000  Uiso   1.00
C15    C     0.78511   0.41225   0.20363   0.00000  Uiso   1.00
C16    C     0.85198   0.42455   0.18186   0.00000  Uiso   1.00
C17    C     0.86289   0.45769   0.09055   0.00000  Uiso   1.00
C18    C     0.72027   0.34600   0.21195   0.00000  Uiso   1.00
C19    C     0.73262   0.30259   0.19719   0.00000  Uiso   1.00
C20    C     0.68896   0.27995   0.11290   0.00000  Uiso   1.00
C21    C     0.71135   0.39746   0.39698   0.00000  Uiso   1.00
C22    C     0.71619   0.39732   0.53778   0.00000  Uiso   1.00
C23    C     0.66499   0.41799   0.60927   0.00000  Uiso   1.00
H24    H     0.62005   0.42940   0.12342   0.00000  Uiso   1.00
H25    H     0.70004   0.48099   0.99342   0.00000  Uiso   1.00
H26    H     0.58070   0.35905   0.00877   0.00000  Uiso   1.00
H27    H     0.56427   0.45376   0.34931   0.00000  Uiso   1.00
H28    H     0.81256   0.52932   0.87883   0.00000  Uiso   1.00
H29    H     0.56092   0.27219   0.91122   0.00000  Uiso   1.00
H30    H     0.52626   0.47191   0.62931   0.00000  Uiso   1.00
H31    H     0.80372   0.36116   0.35125   0.00000  Uiso   1.00
H32    H     0.89379   0.40901   0.23375   0.00000  Uiso   1.00
H33    H     0.77445   0.28706   0.24909   0.00000  Uiso   1.00
H34    H     0.75802   0.38177   0.58963   0.00000  Uiso   1.00
H35    H     0.96982   0.47089   0.07388   0.00000  Uiso   1.00
H36    H     0.71817   0.21377   0.10627   0.00000  Uiso   1.00
H37    H     0.68352   0.41348   0.82436   0.00000  Uiso   1.00
O38    O     0.94713   0.53280   0.89491   0.00000  Uiso   1.00
O39    O     0.61697   0.19547   0.93743   0.00000  Uiso   1.00
O40    O     0.57151   0.45748   0.87954   0.00000  Uiso   1.00
N41    N     0.83721   0.50901   0.94088   0.00000  Uiso   1.00
N42    N     0.60194   0.26861   0.97114   0.00000  Uiso   1.00
N43    N     0.56953   0.45532   0.64250   0.00000  Uiso   1.00
N44    N     0.92183   0.47757   0.04584   0.00000  Uiso   1.00
N45    N     0.68656   0.23718   0.07610   0.00000  Uiso   1.00
N46    N     0.65415   0.42388   0.74746   0.00000  Uiso   1.00
C47    C     0.83787   0.08623   0.67562   0.00000  Uiso   1.00
C48    C     0.76894   0.06766   0.63659   0.00000  Uiso   1.00
C49    C     0.75812   0.03454   0.54530   0.00000  Uiso   1.00
C50    C     0.69125   0.02220   0.52338   0.00000  Uiso   1.00
C51    C     0.59244   0.99032   0.45253   0.00000  Uiso   1.00
C52    C     0.83377   0.13392   0.64491   0.00000  Uiso   1.00
C53    C     0.87747   0.15650   0.56063   0.00000  Uiso   1.00
C54    C     0.86519   0.19993   0.54574   0.00000  Uiso   1.00
C55    C     0.86706   0.27092   0.48788   0.00000  Uiso   1.00
C56    C     0.84270   0.08246   0.82993   0.00000  Uiso   1.00
C57    C     0.89391   0.06178   0.90122   0.00000  Uiso   1.00
C58    C     0.88915   0.06189   0.04211   0.00000  Uiso   1.00
C59    C     0.90489   0.05298   0.27152   0.00000  Uiso   1.00
C60    C     0.73836   0.12320   0.79905   0.00000  Uiso   1.00
C61    C     0.71489   0.08775   0.70363   0.00000  Uiso   1.00
C62    C     0.64802   0.07545   0.68186   0.00000  Uiso   1.00
C63    C     0.63711   0.04231   0.59055   0.00000  Uiso   1.00
C64    C     0.77973   0.15400   0.71195   0.00000  Uiso   1.00
C65    C     0.76738   0.19741   0.69719   0.00000  Uiso   1.00
C66    C     0.81104   0.22005   0.61290   0.00000  Uiso   1.00
C67    C     0.78865   0.10254   0.89698   0.00000  Uiso   1.00
C68    C     0.78381   0.10268   0.03778   0.00000  Uiso   1.00
C69    C     0.83501   0.08201   0.10927   0.00000  Uiso   1.00
H70    H     0.87995   0.07060   0.62342   0.00000  Uiso   1.00
H71    H     0.79996   0.01901   0.49342   0.00000  Uiso   1.00
H72    H     0.91930   0.14095   0.50877   0.00000  Uiso   1.00
H73    H     0.93573   0.04624   0.84931   0.00000  Uiso   1.00
H74    H     0.68744   0.97068   0.37883   0.00000  Uiso   1.00
H75    H     0.93908   0.22781   0.41122   0.00000  Uiso   1.00
H76    H     0.97374   0.02809   0.12931   0.00000  Uiso   1.00
H77    H     0.69628   0.13884   0.85125   0.00000  Uiso   1.00
H78    H     0.60621   0.09099   0.73375   0.00000  Uiso   1.00
H79    H     0.72555   0.21294   0.74909   0.00000  Uiso   1.00
H80    H     0.74198   0.11823   0.08963   0.00000  Uiso   1.00
H81    H     0.53018   0.02911   0.57388   0.00000  Uiso   1.00
H82    H     0.78183   0.28623   0.60627   0.00000  Uiso   1.00
H83    H     0.81648   0.08652   0.32436   0.00000  Uiso   1.00
O84    O     0.55287   0.96720   0.39491   0.00000  Uiso   1.00
O85    O     0.88303   0.30453   0.43743   0.00000  Uiso   1.00
O86    O     0.92849   0.04252   0.37954   0.00000  Uiso   1.00
N87    N     0.66279   0.99099   0.44088   0.00000  Uiso   1.00
N88    N     0.89806   0.23139   0.47114   0.00000  Uiso   1.00
N89    N     0.93047   0.04468   0.14250   0.00000  Uiso   1.00
N90    N     0.57817   0.02243   0.54584   0.00000  Uiso   1.00
N91    N     0.81344   0.26282   0.57610   0.00000  Uiso   1.00
N92    N     0.84585   0.07612   0.24746   0.00000  Uiso   1.00
C93    C     0.33787   0.41377   0.32438   0.00000  Uiso   1.00
C94    C     0.26894   0.43234   0.36341   0.00000  Uiso   1.00
C95    C     0.25812   0.46546   0.45470   0.00000  Uiso   1.00
C96    C     0.19125   0.47780   0.47662   0.00000  Uiso   1.00
C97    C     0.09244   0.50968   0.54747   0.00000  Uiso   1.00
C98    C     0.33377   0.36608   0.35509   0.00000  Uiso   1.00
C99    C     0.37747   0.34350   0.43937   0.00000  Uiso   1.00
C100   C     0.36519   0.30007   0.45426   0.00000  Uiso   1.00
C101   C     0.36706   0.22908   0.51212   0.00000  Uiso   1.00
C102   C     0.34270   0.41754   0.17007   0.00000  Uiso   1.00
C103   C     0.39391   0.43822   0.09878   0.00000  Uiso   1.00
C104   C     0.38915   0.43811   0.95789   0.00000  Uiso   1.00
C105   C     0.40489   0.44702   0.72848   0.00000  Uiso   1.00
C106   C     0.23836   0.37680   0.20095   0.00000  Uiso   1.00
C107   C     0.21489   0.41225   0.29637   0.00000  Uiso   1.00
C108   C     0.14802   0.42455   0.31814   0.00000  Uiso   1.00
C109   C     0.13711   0.45769   0.40945   0.00000  Uiso   1.00
C110   C     0.27973   0.34600   0.28805   0.00000  Uiso   1.00
C111   C     0.26738   0.30259   0.30281   0.00000  Uiso   1.00
C112   C     0.31104   0.27995   0.38710   0.00000  Uiso   1.00
C113   C     0.28865   0.39746   0.10302   0.00000  Uiso   1.00
C114   C     0.28381   0.39732   0.96222   0.00000  Uiso   1.00
C115   C     0.33501   0.41799   0.89073   0.00000  Uiso   1.00
H116   H     0.37995   0.42940   0.37658   0.00000  Uiso   1.00
H117   H     0.29996   0.48099   0.50658   0.00000  Uiso   1.00
H118   H     0.41930   0.35905   0.49123   0.00000  Uiso   1.00
H119   H     0.43573   0.45376   0.15069   0.00000  Uiso   1.00
H120   H     0.18744   0.52932   0.62117   0.00000  Uiso   1.00
H121   H     0.43908   0.27219   0.58878   0.00000  Uiso   1.00
H122   H     0.47374   0.47191   0.87069   0.00000  Uiso   1.00
H123   H     0.19628   0.36116   0.14875   0.00000  Uiso   1.00
H124   H     0.10621   0.40901   0.26625   0.00000  Uiso   1.00
H125   H     0.22555   0.28706   0.25091   0.00000  Uiso   1.00
H126   H     0.24198   0.38177   0.91037   0.00000  Uiso   1.00
H127   H     0.03018   0.47089   0.42612   0.00000  Uiso   1.00
H128   H     0.28183   0.21377   0.39373   0.00000  Uiso   1.00
H129   H     0.31648   0.41348   0.67564   0.00000  Uiso   1.00
O130   O     0.05287   0.53280   0.60509   0.00000  Uiso   1.00
O131   O     0.38303   0.19547   0.56257   0.00000  Uiso   1.00
O132   O     0.42849   0.45748   0.62046   0.00000  Uiso   1.00
N133   N     0.16279   0.50901   0.55912   0.00000  Uiso   1.00
N134   N     0.39806   0.26861   0.52886   0.00000  Uiso   1.00
N135   N     0.43047   0.45532   0.85750   0.00000  Uiso   1.00
N136   N     0.07817   0.47757   0.45416   0.00000  Uiso   1.00
N137   N     0.31344   0.23718   0.42390   0.00000  Uiso   1.00
N138   N     0.34585   0.42388   0.75254   0.00000  Uiso   1.00
C139   C     0.16213   0.08623   0.82438   0.00000  Uiso   1.00
C140   C     0.23106   0.06766   0.86341   0.00000  Uiso   1.00
C141   C     0.24188   0.03454   0.95470   0.00000  Uiso   1.00
C142   C     0.30875   0.02220   0.97662   0.00000  Uiso   1.00
C143   C     0.40756   0.99032   0.04747   0.00000  Uiso   1.00
C144   C     0.16623   0.13392   0.85509   0.00000  Uiso   1.00
C145   C     0.12253   0.15650   0.93937   0.00000  Uiso   1.00
C146   C     0.13481   0.19993   0.95426   0.00000  Uiso   1.00
C147   C     0.13294   0.27092   0.01212   0.00000  Uiso   1.00
C148   C     0.15730   0.08246   0.67007   0.00000  Uiso   1.00
C149   C     0.10609   0.06178   0.59878   0.00000  Uiso   1.00
C150   C     0.11085   0.06189   0.45789   0.00000  Uiso   1.00
C151   C     0.09511   0.05298   0.22848   0.00000  Uiso   1.00
C152   C     0.26164   0.12320   0.70095   0.00000  Uiso   1.00
C153   C     0.28511   0.08775   0.79637   0.00000  Uiso   1.00
C154   C     0.35198   0.07545   0.81814   0.00000  Uiso   1.00
C155   C     0.36289   0.04231   0.90945   0.00000  Uiso   1.00
C156   C     0.22027   0.15400   0.78805   0.00000  Uiso   1.00
C157   C     0.23262   0.19741   0.80281   0.00000  Uiso   1.00
C158   C     0.18896   0.22005   0.88710   0.00000  Uiso   1.00
C159   C     0.21135   0.10254   0.60302   0.00000  Uiso   1.00
C160   C     0.21619   0.10268   0.46222   0.00000  Uiso   1.00
C161   C     0.16499   0.08201   0.39073   0.00000  Uiso   1.00
H162   H     0.12005   0.07060   0.87658   0.00000  Uiso   1.00
H163   H     0.20004   0.01901   0.00658   0.00000  Uiso   1.00
H164   H     0.08070   0.14095   0.99123   0.00000  Uiso   1.00
H165   H     0.06427   0.04624   0.65069   0.00000  Uiso   1.00
H166   H     0.31256   0.97068   0.12117   0.00000  Uiso   1.00
H167   H     0.06092   0.22781   0.08878   0.00000  Uiso   1.00
H168   H     0.02626   0.02809   0.37069   0.00000  Uiso   1.00
H169   H     0.30372   0.13884   0.64875   0.00000  Uiso   1.00
H170   H     0.39379   0.09099   0.76625   0.00000  Uiso   1.00
H171   H     0.27445   0.21294   0.75091   0.00000  Uiso   1.00
H172   H     0.25802   0.11823   0.41037   0.00000  Uiso   1.00
H173   H     0.46982   0.02911   0.92612   0.00000  Uiso   1.00
H174   H     0.21817   0.28623   0.89373   0.00000  Uiso   1.00
H175   H     0.18352   0.08652   0.17564   0.00000  Uiso   1.00
O176   O     0.44713   0.96720   0.10509   0.00000  Uiso   1.00
O177   O     0.11697   0.30453   0.06257   0.00000  Uiso   1.00
O178   O     0.07151   0.04252   0.12046   0.00000  Uiso   1.00
N179   N     0.33721   0.99099   0.05912   0.00000  Uiso   1.00
N180   N     0.10194   0.23139   0.02886   0.00000  Uiso   1.00
N181   N     0.06953   0.04468   0.35750   0.00000  Uiso   1.00
N182   N     0.42183   0.02243   0.95416   0.00000  Uiso   1.00
N183   N     0.18656   0.26282   0.92390   0.00000  Uiso   1.00
N184   N     0.15415   0.07612   0.25254   0.00000  Uiso   1.00
C185   C     0.33787   0.58623   0.82438   0.00000  Uiso   1.00
C186   C     0.26894   0.56766   0.86341   0.00000  Uiso   1.00
C187   C     0.25812   0.53454   0.95470   0.00000  Uiso   1.00
C188   C     0.19125   0.52220   0.97662   0.00000  Uiso   1.00
C189   C     0.09244   0.49032   0.04747   0.00000  Uiso   1.00
C190   C     0.33377   0.63392   0.85509   0.00000  Uiso   1.00
C191   C     0.37747   0.65650   0.93937   0.00000  Uiso   1.00
C192   C     0.36519   0.69993   0.95426   0.00000  Uiso   1.00
C193   C     0.36706   0.77092   0.01212   0.00000  Uiso   1.00
C194   C     0.34270   0.58246   0.67007   0.00000  Uiso   1.00
C195   C     0.39391   0.56178   0.59878   0.00000  Uiso   1.00
C196   C     0.38915   0.56189   0.45789   0.00000  Uiso   1.00
C197   C     0.40489   0.55298   0.22848   0.00000  Uiso   1.00
C198   C     0.23836   0.62320   0.70095   0.00000  Uiso   1.00
C199   C     0.21489   0.58775   0.79637   0.00000  Uiso   1.00
C200   C     0.14802   0.57545   0.81814   0.00000  Uiso   1.00
C201   C     0.13711   0.54231   0.90945   0.00000  Uiso   1.00
C202   C     0.27973   0.65400   0.78805   0.00000  Uiso   1.00
C203   C     0.26738   0.69741   0.80281   0.00000  Uiso   1.00
C204   C     0.31104   0.72005   0.88710   0.00000  Uiso   1.00
C205   C     0.28865   0.60254   0.60302   0.00000  Uiso   1.00
C206   C     0.28381   0.60268   0.46222   0.00000  Uiso   1.00
C207   C     0.33501   0.58201   0.39073   0.00000  Uiso   1.00
H208   H     0.37995   0.57060   0.87658   0.00000  Uiso   1.00
H209   H     0.29996   0.51901   0.00658   0.00000  Uiso   1.00
H210   H     0.41930   0.64095   0.99123   0.00000  Uiso   1.00
H211   H     0.43573   0.54624   0.65069   0.00000  Uiso   1.00
H212   H     0.18744   0.47068   0.12117   0.00000  Uiso   1.00
H213   H     0.43908   0.72781   0.08878   0.00000  Uiso   1.00
H214   H     0.47374   0.52809   0.37069   0.00000  Uiso   1.00
H215   H     0.19628   0.63884   0.64875   0.00000  Uiso   1.00
H216   H     0.10621   0.59099   0.76625   0.00000  Uiso   1.00
H217   H     0.22555   0.71294   0.75091   0.00000  Uiso   1.00
H218   H     0.24198   0.61823   0.41037   0.00000  Uiso   1.00
H219   H     0.03018   0.52911   0.92612   0.00000  Uiso   1.00
H220   H     0.28183   0.78623   0.89373   0.00000  Uiso   1.00
H221   H     0.31648   0.58652   0.17564   0.00000  Uiso   1.00
O222   O     0.05287   0.46720   0.10509   0.00000  Uiso   1.00
O223   O     0.38303   0.80453   0.06257   0.00000  Uiso   1.00
O224   O     0.42849   0.54252   0.12046   0.00000  Uiso   1.00
N225   N     0.16279   0.49099   0.05912   0.00000  Uiso   1.00
N226   N     0.39806   0.73139   0.02886   0.00000  Uiso   1.00
N227   N     0.43047   0.54468   0.35750   0.00000  Uiso   1.00
N228   N     0.07817   0.52243   0.95416   0.00000  Uiso   1.00
N229   N     0.31344   0.76282   0.92390   0.00000  Uiso   1.00
N230   N     0.34585   0.57612   0.25254   0.00000  Uiso   1.00
C231   C     0.16213   0.91377   0.32438   0.00000  Uiso   1.00
C232   C     0.23106   0.93234   0.36341   0.00000  Uiso   1.00
C233   C     0.24188   0.96546   0.45470   0.00000  Uiso   1.00
C234   C     0.30875   0.97780   0.47662   0.00000  Uiso   1.00
C235   C     0.40756   0.00968   0.54747   0.00000  Uiso   1.00
C236   C     0.16623   0.86608   0.35509   0.00000  Uiso   1.00
C237   C     0.12253   0.84350   0.43937   0.00000  Uiso   1.00
C238   C     0.13481   0.80007   0.45426   0.00000  Uiso   1.00
C239   C     0.13294   0.72908   0.51212   0.00000  Uiso   1.00
C240   C     0.15730   0.91754   0.17007   0.00000  Uiso   1.00
C241   C     0.10609   0.93822   0.09878   0.00000  Uiso   1.00
C242   C     0.11085   0.93811   0.95789   0.00000  Uiso   1.00
C243   C     0.09511   0.94702   0.72848   0.00000  Uiso   1.00
C244   C     0.26164   0.87680   0.20095   0.00000  Uiso   1.00
C245   C     0.28511   0.91225   0.29637   0.00000  Uiso   1.00
C246   C     0.35198   0.92455   0.31814   0.00000  Uiso   1.00
C247   C     0.36289   0.95769   0.40945   0.00000  Uiso   1.00
C248   C     0.22027   0.84600   0.28805   0.00000  Uiso   1.00
C249   C     0.23262   0.80259   0.30281   0.00000  Uiso   1.00
C250   C     0.18896   0.77995   0.38710   0.00000  Uiso   1.00
C251   C     0.21135   0.89746   0.10302   0.00000  Uiso   1.00
C252   C     0.21619   0.89732   0.96222   0.00000  Uiso   1.00
C253   C     0.16499   0.91799   0.89073   0.00000  Uiso   1.00
H254   H     0.12005   0.92940   0.37658   0.00000  Uiso   1.00
H255   H     0.20004   0.98099   0.50658   0.00000  Uiso   1.00
H256   H     0.08070   0.85905   0.49123   0.00000  Uiso   1.00
H257   H     0.06427   0.95376   0.15069   0.00000  Uiso   1.00
H258   H     0.31256   0.02932   0.62117   0.00000  Uiso   1.00
H259   H     0.06092   0.77219   0.58878   0.00000  Uiso   1.00
H260   H     0.02626   0.97191   0.87069   0.00000  Uiso   1.00
H261   H     0.30372   0.86116   0.14875   0.00000  Uiso   1.00
H262   H     0.39379   0.90901   0.26625   0.00000  Uiso   1.00
H263   H     0.27445   0.78706   0.25091   0.00000  Uiso   1.00
H264   H     0.25802   0.88177   0.91037   0.00000  Uiso   1.00
H265   H     0.46982   0.97089   0.42612   0.00000  Uiso   1.00
H266   H     0.21817   0.71377   0.39373   0.00000  Uiso   1.00
H267   H     0.18352   0.91348   0.67564   0.00000  Uiso   1.00
O268   O     0.44713   0.03280   0.60509   0.00000  Uiso   1.00
O269   O     0.11697   0.69547   0.56257   0.00000  Uiso   1.00
O270   O     0.07151   0.95748   0.62046   0.00000  Uiso   1.00
N271   N     0.33721   0.00901   0.55912   0.00000  Uiso   1.00
N272   N     0.10194   0.76861   0.52886   0.00000  Uiso   1.00
N273   N     0.06953   0.95532   0.85750   0.00000  Uiso   1.00
N274   N     0.42183   0.97757   0.45416   0.00000  Uiso   1.00
N275   N     0.18656   0.73718   0.42390   0.00000  Uiso   1.00
N276   N     0.15415   0.92388   0.75254   0.00000  Uiso   1.00
C277   C     0.66213   0.58623   0.67562   0.00000  Uiso   1.00
C278   C     0.73106   0.56766   0.63659   0.00000  Uiso   1.00
C279   C     0.74188   0.53454   0.54530   0.00000  Uiso   1.00
C280   C     0.80875   0.52220   0.52338   0.00000  Uiso   1.00
C281   C     0.90756   0.49032   0.45253   0.00000  Uiso   1.00
C282   C     0.66623   0.63392   0.64491   0.00000  Uiso   1.00
C283   C     0.62253   0.65650   0.56063   0.00000  Uiso   1.00
C284   C     0.63481   0.69993   0.54574   0.00000  Uiso   1.00
C285   C     0.63294   0.77092   0.48788   0.00000  Uiso   1.00
C286   C     0.65730   0.58246   0.82993   0.00000  Uiso   1.00
C287   C     0.60609   0.56178   0.90122   0.00000  Uiso   1.00
C288   C     0.61085   0.56189   0.04211   0.00000  Uiso   1.00
C289   C     0.59511   0.55298   0.27152   0.00000  Uiso   1.00
C290   C     0.76164   0.62320   0.79905   0.00000  Uiso   1.00
C291   C     0.78511   0.58775   0.70363   0.00000  Uiso   1.00
C292   C     0.85198   0.57545   0.68186   0.00000  Uiso   1.00
C293   C     0.86289   0.54231   0.59055   0.00000  Uiso   1.00
C294   C     0.72027   0.65400   0.71195   0.00000  Uiso   1.00
C295   C     0.73262   0.69741   0.69719   0.00000  Uiso   1.00
C296   C     0.68896   0.72005   0.61290   0.00000  Uiso   1.00
C297   C     0.71135   0.60254   0.89698   0.00000  Uiso   1.00
C298   C     0.71619   0.60268   0.03778   0.00000  Uiso   1.00
C299   C     0.66499   0.58201   0.10927   0.00000  Uiso   1.00
H300   H     0.62005   0.57060   0.62342   0.00000  Uiso   1.00
H301   H     0.70004   0.51901   0.49342   0.00000  Uiso   1.00
H302   H     0.58070   0.64095   0.50877   0.00000  Uiso   1.00
H303   H     0.56427   0.54624   0.84931   0.00000  Uiso   1.00
H304   H     0.81256   0.47068   0.37883   0.00000  Uiso   1.00
H305   H     0.56092   0.72781   0.41122   0.00000  Uiso   1.00
H306   H     0.52626   0.52809   0.12931   0.00000  Uiso   1.00
H307   H     0.80372   0.63884   0.85125   0.00000  Uiso   1.00
H308   H     0.89379   0.59099   0.73375   0.00000  Uiso   1.00
H309   H     0.77445   0.71294   0.74909   0.00000  Uiso   1.00
H310   H     0.75802   0.61823   0.08963   0.00000  Uiso   1.00
H311   H     0.96982   0.52911   0.57388   0.00000  Uiso   1.00
H312   H     0.71817   0.78623   0.60627   0.00000  Uiso   1.00
H313   H     0.68352   0.58652   0.32436   0.00000  Uiso   1.00
O314   O     0.94713   0.46720   0.39491   0.00000  Uiso   1.00
O315   O     0.61697   0.80453   0.43743   0.00000  Uiso   1.00
O316   O     0.57151   0.54252   0.37954   0.00000  Uiso   1.00
N317   N     0.83721   0.49099   0.44088   0.00000  Uiso   1.00
N318   N     0.60194   0.73139   0.47114   0.00000  Uiso   1.00
N319   N     0.56953   0.54468   0.14250   0.00000  Uiso   1.00
N320   N     0.92183   0.52243   0.54584   0.00000  Uiso   1.00
N321   N     0.68656   0.76282   0.57610   0.00000  Uiso   1.00
N322   N     0.65415   0.57612   0.24746   0.00000  Uiso   1.00
C323   C     0.83787   0.91377   0.17562   0.00000  Uiso   1.00
C324   C     0.76894   0.93234   0.13659   0.00000  Uiso   1.00
C325   C     0.75812   0.96546   0.04530   0.00000  Uiso   1.00
C326   C     0.69125   0.97780   0.02338   0.00000  Uiso   1.00
C327   C     0.59244   0.00968   0.95253   0.00000  Uiso   1.00
C328   C     0.83377   0.86608   0.14491   0.00000  Uiso   1.00
C329   C     0.87747   0.84350   0.06063   0.00000  Uiso   1.00
C330   C     0.86519   0.80007   0.04574   0.00000  Uiso   1.00
C331   C     0.86706   0.72908   0.98788   0.00000  Uiso   1.00
C332   C     0.84270   0.91754   0.32993   0.00000  Uiso   1.00
C333   C     0.89391   0.93822   0.40122   0.00000  Uiso   1.00
C334   C     0.88915   0.93811   0.54211   0.00000  Uiso   1.00
C335   C     0.90489   0.94702   0.77152   0.00000  Uiso   1.00
C336   C     0.73836   0.87680   0.29905   0.00000  Uiso   1.00
C337   C     0.71489   0.91225   0.20363   0.00000  Uiso   1.00
C338   C     0.64802   0.92455   0.18186   0.00000  Uiso   1.00
C339   C     0.63711   0.95769   0.09055   0.00000  Uiso   1.00
C340   C     0.77973   0.84600   0.21195   0.00000  Uiso   1.00
C341   C     0.76738   0.80259   0.19719   0.00000  Uiso   1.00
C342   C     0.81104   0.77995   0.11290   0.00000  Uiso   1.00
C343   C     0.78865   0.89746   0.39698   0.00000  Uiso   1.00
C344   C     0.78381   0.89732   0.53778   0.00000  Uiso   1.00
C345   C     0.83501   0.91799   0.60927   0.00000  Uiso   1.00
H346   H     0.87995   0.92940   0.12342   0.00000  Uiso   1.00
H347   H     0.79996   0.98099   0.99342   0.00000  Uiso   1.00
H348   H     0.91930   0.85905   0.00877   0.00000  Uiso   1.00
H349   H     0.93573   0.95376   0.34931   0.00000  Uiso   1.00
H350   H     0.68744   0.02932   0.87883   0.00000  Uiso   1.00
H351   H     0.93908   0.77219   0.91122   0.00000  Uiso   1.00
H352   H     0.97374   0.97191   0.62931   0.00000  Uiso   1.00
H353   H     0.69628   0.86116   0.35125   0.00000  Uiso   1.00
H354   H     0.60621   0.90901   0.23375   0.00000  Uiso   1.00
H355   H     0.72555   0.78706   0.24909   0.00000  Uiso   1.00
H356   H     0.74198   0.88177   0.58963   0.00000  Uiso   1.00
H357   H     0.53018   0.97089   0.07388   0.00000  Uiso   1.00
H358   H     0.78183   0.71377   0.10627   0.00000  Uiso   1.00
H359   H     0.81648   0.91348   0.82436   0.00000  Uiso   1.00
O360   O     0.55287   0.03280   0.89491   0.00000  Uiso   1.00
O361   O     0.88303   0.69547   0.93743   0.00000  Uiso   1.00
O362   O     0.92849   0.95748   0.87954   0.00000  Uiso   1.00
N363   N     0.66279   0.00901   0.94088   0.00000  Uiso   1.00
N364   N     0.89806   0.76861   0.97114   0.00000  Uiso   1.00
N365   N     0.93047   0.95532   0.64250   0.00000  Uiso   1.00
N366   N     0.57817   0.97757   0.04584   0.00000  Uiso   1.00
N367   N     0.81344   0.73718   0.07610   0.00000  Uiso   1.00
N368   N     0.84585   0.92388   0.74746   0.00000  Uiso   1.00
