data_job_00536
_audit_creation_date              2018-12-19
_audit_creation_method            'Materials Studio'
_symmetry_space_group_name_H-M    'P1'
_symmetry_Int_Tables_number       1
_symmetry_cell_setting            triclinic
loop_
_symmetry_equiv_pos_as_xyz
  x,y,z
_cell_length_a                    27.7725
_cell_length_b                    8.1804
_cell_length_c                    17.3485
_cell_angle_alpha                 90.0000
_cell_angle_beta                  146.5697
_cell_angle_gamma                 90.0000
loop_
_atom_site_label
_atom_site_type_symbol
_atom_site_fract_x
_atom_site_fract_y
_atom_site_fract_z
_atom_site_U_iso_or_equiv
_atom_site_adp_type
_atom_site_occupancy
C1     C     0.22934   0.98804   0.87365   0.00000  Uiso   1.00
C2     C     0.15929   0.86265   0.80043   0.00000  Uiso   1.00
C3     C     0.08138   0.89531   0.73430   0.00000  Uiso   1.00
C4     C     0.02599   0.76386   0.67354   0.00000  Uiso   1.00
C5     C     0.91393   0.59324   0.55911   0.00000  Uiso   1.00
C6     C     0.31378   0.92617   0.02292   0.00000  Uiso   1.00
C7     C     0.36578   0.01225   0.14385   0.00000  Uiso   1.00
C8     C     0.44044   0.93427   0.27038   0.00000  Uiso   1.00
C9     C     0.56826   0.86231   0.50137   0.00000  Uiso   1.00
C10    C     0.24246   0.97550   0.80425   0.00000  Uiso   1.00
C11    C     0.23450   0.10307   0.74136   0.00000  Uiso   1.00
C12    C     0.24913   0.06663   0.68381   0.00000  Uiso   1.00
C13    C     0.26621   0.07127   0.57527   0.00000  Uiso   1.00
C14    C     0.26949   0.69649   0.88333   0.00000  Uiso   1.00
C15    C     0.18111   0.70429   0.80569   0.00000  Uiso   1.00
C16    C     0.12581   0.57275   0.74501   0.00000  Uiso   1.00
C17    C     0.04784   0.60522   0.67880   0.00000  Uiso   1.00
C18    C     0.33560   0.76782   0.02818   0.00000  Uiso   1.00
C19    C     0.41020   0.68969   0.15456   0.00000  Uiso   1.00
C20    C     0.46229   0.77563   0.27565   0.00000  Uiso   1.00
C21    C     0.26427   0.81714   0.80950   0.00000  Uiso   1.00
C22    C     0.27892   0.78050   0.75205   0.00000  Uiso   1.00
C23    C     0.27098   0.90799   0.68907   0.00000  Uiso   1.00
H24    H     0.21236   0.11132   0.86957   0.00000  Uiso   1.00
H25    H     0.06453   0.01788   0.73027   0.00000  Uiso   1.00
H26    H     0.34888   0.13480   0.13975   0.00000  Uiso   1.00
H27    H     0.21762   0.22560   0.73731   0.00000  Uiso   1.00
H28    H     0.91027   0.84443   0.57819   0.00000  Uiso   1.00
H29    H     0.50985   0.09100   0.44161   0.00000  Uiso   1.00
H30    H     0.23307   0.28247   0.59298   0.00000  Uiso   1.00
H31    H     0.28648   0.57320   0.88742   0.00000  Uiso   1.00
H32    H     0.14271   0.45022   0.74909   0.00000  Uiso   1.00
H33    H     0.42706   0.56715   0.15858   0.00000  Uiso   1.00
H34    H     0.29580   0.65795   0.75614   0.00000  Uiso   1.00
H35    H     0.97373   0.38370   0.59347   0.00000  Uiso   1.00
H36    H     0.57331   0.63027   0.45690   0.00000  Uiso   1.00
H37    H     0.29652   0.82173   0.60827   0.00000  Uiso   1.00
O38    O     0.84610   0.54287   0.49455   0.00000  Uiso   1.00
O39    O     0.63274   0.86637   0.62733   0.00000  Uiso   1.00
O40    O     0.26959   0.11757   0.51394   0.00000  Uiso   1.00
N41    N     0.94493   0.75288   0.60075   0.00000  Uiso   1.00
N42    N     0.50550   0.98340   0.40800   0.00000  Uiso   1.00
N43    N     0.24674   0.16241   0.61463   0.00000  Uiso   1.00
N44    N     0.97907   0.50496   0.60897   0.00000  Uiso   1.00
N45    N     0.53964   0.73548   0.41622   0.00000  Uiso   1.00
N46    N     0.28089   0.91450   0.62285   0.00000  Uiso   1.00
C47    C     0.77066   0.48804   0.62635   0.00000  Uiso   1.00
C48    C     0.84071   0.36265   0.69957   0.00000  Uiso   1.00
C49    C     0.91862   0.39531   0.76570   0.00000  Uiso   1.00
C50    C     0.97401   0.26386   0.82646   0.00000  Uiso   1.00
C51    C     0.08607   0.09324   0.94089   0.00000  Uiso   1.00
C52    C     0.68622   0.42617   0.47708   0.00000  Uiso   1.00
C53    C     0.63422   0.51225   0.35615   0.00000  Uiso   1.00
C54    C     0.55956   0.43427   0.22962   0.00000  Uiso   1.00
C55    C     0.43174   0.36231   0.99863   0.00000  Uiso   1.00
C56    C     0.75754   0.47550   0.69575   0.00000  Uiso   1.00
C57    C     0.76550   0.60307   0.75864   0.00000  Uiso   1.00
C58    C     0.75087   0.56663   0.81619   0.00000  Uiso   1.00
C59    C     0.73379   0.57127   0.92473   0.00000  Uiso   1.00
C60    C     0.73051   0.19649   0.61667   0.00000  Uiso   1.00
C61    C     0.81889   0.20429   0.69431   0.00000  Uiso   1.00
C62    C     0.87419   0.07275   0.75499   0.00000  Uiso   1.00
C63    C     0.95216   0.10522   0.82120   0.00000  Uiso   1.00
C64    C     0.66440   0.26782   0.47182   0.00000  Uiso   1.00
C65    C     0.58980   0.18969   0.34544   0.00000  Uiso   1.00
C66    C     0.53771   0.27563   0.22435   0.00000  Uiso   1.00
C67    C     0.73573   0.31714   0.69050   0.00000  Uiso   1.00
C68    C     0.72108   0.28050   0.74795   0.00000  Uiso   1.00
C69    C     0.72902   0.40799   0.81093   0.00000  Uiso   1.00
H70    H     0.78764   0.61132   0.63043   0.00000  Uiso   1.00
H71    H     0.93547   0.51788   0.76973   0.00000  Uiso   1.00
H72    H     0.65112   0.63480   0.36025   0.00000  Uiso   1.00
H73    H     0.78238   0.72560   0.76269   0.00000  Uiso   1.00
H74    H     0.08973   0.34443   0.92181   0.00000  Uiso   1.00
H75    H     0.49015   0.59100   0.05839   0.00000  Uiso   1.00
H76    H     0.76693   0.78247   0.90702   0.00000  Uiso   1.00
H77    H     0.71352   0.07320   0.61258   0.00000  Uiso   1.00
H78    H     0.85729   0.95022   0.75091   0.00000  Uiso   1.00
H79    H     0.57294   0.06715   0.34142   0.00000  Uiso   1.00
H80    H     0.70420   0.15795   0.74386   0.00000  Uiso   1.00
H81    H     0.02627   0.88370   0.90653   0.00000  Uiso   1.00
H82    H     0.42669   0.13027   0.04310   0.00000  Uiso   1.00
H83    H     0.70348   0.32173   0.89173   0.00000  Uiso   1.00
O84    O     0.15390   0.04287   0.00545   0.00000  Uiso   1.00
O85    O     0.36726   0.36637   0.87267   0.00000  Uiso   1.00
O86    O     0.73041   0.61757   0.98606   0.00000  Uiso   1.00
N87    N     0.05507   0.25288   0.89925   0.00000  Uiso   1.00
N88    N     0.49450   0.48340   0.09200   0.00000  Uiso   1.00
N89    N     0.75326   0.66241   0.88537   0.00000  Uiso   1.00
N90    N     0.02093   0.00496   0.89103   0.00000  Uiso   1.00
N91    N     0.46036   0.23548   0.08378   0.00000  Uiso   1.00
N92    N     0.71911   0.41450   0.87715   0.00000  Uiso   1.00
C93    C     0.77066   0.01196   0.12635   0.00000  Uiso   1.00
C94    C     0.84071   0.13735   0.19957   0.00000  Uiso   1.00
C95    C     0.91862   0.10469   0.26570   0.00000  Uiso   1.00
C96    C     0.97401   0.23614   0.32646   0.00000  Uiso   1.00
C97    C     0.08607   0.40676   0.44089   0.00000  Uiso   1.00
C98    C     0.68622   0.07383   0.97708   0.00000  Uiso   1.00
C99    C     0.63422   0.98775   0.85615   0.00000  Uiso   1.00
C100   C     0.55956   0.06573   0.72962   0.00000  Uiso   1.00
C101   C     0.43174   0.13769   0.49863   0.00000  Uiso   1.00
C102   C     0.75754   0.02450   0.19575   0.00000  Uiso   1.00
C103   C     0.76550   0.89693   0.25864   0.00000  Uiso   1.00
C104   C     0.75087   0.93337   0.31619   0.00000  Uiso   1.00
C105   C     0.73379   0.92873   0.42473   0.00000  Uiso   1.00
C106   C     0.73051   0.30351   0.11667   0.00000  Uiso   1.00
C107   C     0.81889   0.29571   0.19431   0.00000  Uiso   1.00
C108   C     0.87419   0.42725   0.25499   0.00000  Uiso   1.00
C109   C     0.95216   0.39478   0.32120   0.00000  Uiso   1.00
C110   C     0.66440   0.23218   0.97182   0.00000  Uiso   1.00
C111   C     0.58980   0.31031   0.84544   0.00000  Uiso   1.00
C112   C     0.53771   0.22437   0.72435   0.00000  Uiso   1.00
C113   C     0.73573   0.18286   0.19050   0.00000  Uiso   1.00
C114   C     0.72108   0.21950   0.24795   0.00000  Uiso   1.00
C115   C     0.72902   0.09201   0.31093   0.00000  Uiso   1.00
H116   H     0.78764   0.88868   0.13043   0.00000  Uiso   1.00
H117   H     0.93547   0.98212   0.26973   0.00000  Uiso   1.00
H118   H     0.65112   0.86520   0.86025   0.00000  Uiso   1.00
H119   H     0.78238   0.77440   0.26269   0.00000  Uiso   1.00
H120   H     0.08973   0.15557   0.42181   0.00000  Uiso   1.00
H121   H     0.49015   0.90900   0.55839   0.00000  Uiso   1.00
H122   H     0.76693   0.71753   0.40702   0.00000  Uiso   1.00
H123   H     0.71352   0.42680   0.11258   0.00000  Uiso   1.00
H124   H     0.85729   0.54978   0.25091   0.00000  Uiso   1.00
H125   H     0.57294   0.43285   0.84142   0.00000  Uiso   1.00
H126   H     0.70420   0.34205   0.24386   0.00000  Uiso   1.00
H127   H     0.02627   0.61630   0.40653   0.00000  Uiso   1.00
H128   H     0.42669   0.36973   0.54310   0.00000  Uiso   1.00
H129   H     0.70348   0.17827   0.39173   0.00000  Uiso   1.00
O130   O     0.15390   0.45713   0.50545   0.00000  Uiso   1.00
O131   O     0.36726   0.13363   0.37267   0.00000  Uiso   1.00
O132   O     0.73041   0.88243   0.48606   0.00000  Uiso   1.00
N133   N     0.05507   0.24712   0.39925   0.00000  Uiso   1.00
N134   N     0.49450   0.01660   0.59200   0.00000  Uiso   1.00
N135   N     0.75326   0.83759   0.38537   0.00000  Uiso   1.00
N136   N     0.02093   0.49504   0.39103   0.00000  Uiso   1.00
N137   N     0.46036   0.26452   0.58378   0.00000  Uiso   1.00
N138   N     0.71911   0.08550   0.37715   0.00000  Uiso   1.00
C139   C     0.22934   0.51196   0.37365   0.00000  Uiso   1.00
C140   C     0.15929   0.63735   0.30043   0.00000  Uiso   1.00
C141   C     0.08138   0.60469   0.23430   0.00000  Uiso   1.00
C142   C     0.02599   0.73614   0.17354   0.00000  Uiso   1.00
C143   C     0.91393   0.90676   0.05911   0.00000  Uiso   1.00
C144   C     0.31378   0.57383   0.52292   0.00000  Uiso   1.00
C145   C     0.36578   0.48775   0.64385   0.00000  Uiso   1.00
C146   C     0.44044   0.56573   0.77038   0.00000  Uiso   1.00
C147   C     0.56826   0.63769   0.00137   0.00000  Uiso   1.00
C148   C     0.24246   0.52450   0.30425   0.00000  Uiso   1.00
C149   C     0.23450   0.39693   0.24136   0.00000  Uiso   1.00
C150   C     0.24913   0.43337   0.18381   0.00000  Uiso   1.00
C151   C     0.26621   0.42873   0.07527   0.00000  Uiso   1.00
C152   C     0.26949   0.80351   0.38333   0.00000  Uiso   1.00
C153   C     0.18111   0.79571   0.30569   0.00000  Uiso   1.00
C154   C     0.12581   0.92725   0.24501   0.00000  Uiso   1.00
C155   C     0.04784   0.89478   0.17880   0.00000  Uiso   1.00
C156   C     0.33560   0.73218   0.52818   0.00000  Uiso   1.00
C157   C     0.41020   0.81031   0.65456   0.00000  Uiso   1.00
C158   C     0.46229   0.72437   0.77565   0.00000  Uiso   1.00
C159   C     0.26427   0.68286   0.30950   0.00000  Uiso   1.00
C160   C     0.27892   0.71950   0.25205   0.00000  Uiso   1.00
C161   C     0.27098   0.59201   0.18907   0.00000  Uiso   1.00
H162   H     0.21236   0.38868   0.36957   0.00000  Uiso   1.00
H163   H     0.06453   0.48212   0.23027   0.00000  Uiso   1.00
H164   H     0.34888   0.36520   0.63975   0.00000  Uiso   1.00
H165   H     0.21762   0.27440   0.23731   0.00000  Uiso   1.00
H166   H     0.91027   0.65557   0.07819   0.00000  Uiso   1.00
H167   H     0.50985   0.40900   0.94161   0.00000  Uiso   1.00
H168   H     0.23307   0.21753   0.09298   0.00000  Uiso   1.00
H169   H     0.28648   0.92680   0.38742   0.00000  Uiso   1.00
H170   H     0.14271   0.04978   0.24909   0.00000  Uiso   1.00
H171   H     0.42706   0.93285   0.65858   0.00000  Uiso   1.00
H172   H     0.29580   0.84205   0.25614   0.00000  Uiso   1.00
H173   H     0.97373   0.11630   0.09347   0.00000  Uiso   1.00
H174   H     0.57331   0.86973   0.95690   0.00000  Uiso   1.00
H175   H     0.29652   0.67827   0.10827   0.00000  Uiso   1.00
O176   O     0.84610   0.95713   0.99455   0.00000  Uiso   1.00
O177   O     0.63274   0.63363   0.12733   0.00000  Uiso   1.00
O178   O     0.26959   0.38243   0.01394   0.00000  Uiso   1.00
N179   N     0.94493   0.74712   0.10075   0.00000  Uiso   1.00
N180   N     0.50550   0.51660   0.90800   0.00000  Uiso   1.00
N181   N     0.24674   0.33759   0.11463   0.00000  Uiso   1.00
N182   N     0.97907   0.99504   0.10897   0.00000  Uiso   1.00
N183   N     0.53964   0.76452   0.91622   0.00000  Uiso   1.00
N184   N     0.28089   0.58550   0.12285   0.00000  Uiso   1.00
