data_job_01258
_audit_creation_date              2018-12-19
_audit_creation_method            'Materials Studio'
_symmetry_space_group_name_H-M    'P1'
_symmetry_Int_Tables_number       1
_symmetry_cell_setting            triclinic
loop_
_symmetry_equiv_pos_as_xyz
  x,y,z
_cell_length_a                    20.2564
_cell_length_b                    20.5934
_cell_length_c                    11.7921
_cell_angle_alpha                 90.0000
_cell_angle_beta                  90.0000
_cell_angle_gamma                 90.0000
loop_
_atom_site_label
_atom_site_type_symbol
_atom_site_fract_x
_atom_site_fract_y
_atom_site_fract_z
_atom_site_U_iso_or_equiv
_atom_site_adp_type
_atom_site_occupancy
C1     C     0.64708   0.09057   0.02240   0.00000  Uiso   1.00
C2     C     0.59984   0.14810   0.02878   0.00000  Uiso   1.00
C3     C     0.54086   0.14972   0.08859   0.00000  Uiso   1.00
C4     C     0.50469   0.20692   0.08374   0.00000  Uiso   1.00
C5     C     0.42796   0.28810   0.10310   0.00000  Uiso   1.00
C6     C     0.65546   0.07547   0.89662   0.00000  Uiso   1.00
C7     C     0.64325   0.01602   0.84531   0.00000  Uiso   1.00
C8     C     0.65391   0.01208   0.72920   0.00000  Uiso   1.00
C9     C     0.66357   0.98048   0.54339   0.00000  Uiso   1.00
C10    C     0.71380   0.11576   0.06301   0.00000  Uiso   1.00
C11    C     0.75067   0.09018   0.15158   0.00000  Uiso   1.00
C12    C     0.81046   0.12015   0.17555   0.00000  Uiso   1.00
C13    C     0.91072   0.15110   0.24809   0.00000  Uiso   1.00
C14    C     0.68773   0.18927   0.90744   0.00000  Uiso   1.00
C15    C     0.62192   0.20171   0.96633   0.00000  Uiso   1.00
C16    C     0.58583   0.25893   0.96140   0.00000  Uiso   1.00
C17    C     0.52681   0.26063   0.02119   0.00000  Uiso   1.00
C18    C     0.67754   0.12908   0.83417   0.00000  Uiso   1.00
C19    C     0.68822   0.12523   0.71811   0.00000  Uiso   1.00
C20    C     0.67603   0.06579   0.66664   0.00000  Uiso   1.00
C21    C     0.73589   0.16937   0.00057   0.00000  Uiso   1.00
C22    C     0.79564   0.19939   0.02439   0.00000  Uiso   1.00
C23    C     0.83258   0.17386   0.11299   0.00000  Uiso   1.00
H24    H     0.62989   0.04882   0.07101   0.00000  Uiso   1.00
H25    H     0.52378   0.10822   0.13689   0.00000  Uiso   1.00
H26    H     0.62617   0.97454   0.89365   0.00000  Uiso   1.00
H27    H     0.73356   0.04869   0.19989   0.00000  Uiso   1.00
H28    H     0.41587   0.19771   0.18237   0.00000  Uiso   1.00
H29    H     0.63177   0.91583   0.66949   0.00000  Uiso   1.00
H30    H     0.85824   0.07218   0.31524   0.00000  Uiso   1.00
H31    H     0.70493   0.23101   0.85882   0.00000  Uiso   1.00
H32    H     0.60293   0.30041   0.91307   0.00000  Uiso   1.00
H33    H     0.70531   0.16672   0.66982   0.00000  Uiso   1.00
H34    H     0.81271   0.24087   0.97605   0.00000  Uiso   1.00
H35    H     0.48011   0.35369   0.00070   0.00000  Uiso   1.00
H36    H     0.69601   0.07181   0.48782   0.00000  Uiso   1.00
H37    H     0.92248   0.22817   0.13357   0.00000  Uiso   1.00
O38    O     0.37953   0.31806   0.13101   0.00000  Uiso   1.00
O39    O     0.66279   0.94824   0.45814   0.00000  Uiso   1.00
O40    O     0.95991   0.15337   0.30536   0.00000  Uiso   1.00
N41    N     0.44499   0.22490   0.13219   0.00000  Uiso   1.00
N42    N     0.64683   0.96136   0.65267   0.00000  Uiso   1.00
N43    N     0.85857   0.10753   0.25638   0.00000  Uiso   1.00
N44    N     0.47956   0.30884   0.03443   0.00000  Uiso   1.00
N45    N     0.68140   0.04529   0.55492   0.00000  Uiso   1.00
N46    N     0.89314   0.19146   0.15862   0.00000  Uiso   1.00
C47    C     0.85292   0.90943   0.02240   0.00000  Uiso   1.00
C48    C     0.90016   0.85190   0.02878   0.00000  Uiso   1.00
C49    C     0.95914   0.85028   0.08859   0.00000  Uiso   1.00
C50    C     0.99531   0.79308   0.08374   0.00000  Uiso   1.00
C51    C     0.07204   0.71190   0.10310   0.00000  Uiso   1.00
C52    C     0.84454   0.92453   0.89662   0.00000  Uiso   1.00
C53    C     0.85675   0.98398   0.84531   0.00000  Uiso   1.00
C54    C     0.84609   0.98792   0.72920   0.00000  Uiso   1.00
C55    C     0.83643   0.01952   0.54339   0.00000  Uiso   1.00
C56    C     0.78620   0.88424   0.06301   0.00000  Uiso   1.00
C57    C     0.74933   0.90982   0.15158   0.00000  Uiso   1.00
C58    C     0.68954   0.87985   0.17555   0.00000  Uiso   1.00
C59    C     0.58928   0.84890   0.24809   0.00000  Uiso   1.00
C60    C     0.81227   0.81073   0.90744   0.00000  Uiso   1.00
C61    C     0.87808   0.79829   0.96633   0.00000  Uiso   1.00
C62    C     0.91417   0.74107   0.96140   0.00000  Uiso   1.00
C63    C     0.97319   0.73937   0.02119   0.00000  Uiso   1.00
C64    C     0.82246   0.87092   0.83417   0.00000  Uiso   1.00
C65    C     0.81178   0.87477   0.71811   0.00000  Uiso   1.00
C66    C     0.82397   0.93421   0.66664   0.00000  Uiso   1.00
C67    C     0.76411   0.83063   0.00057   0.00000  Uiso   1.00
C68    C     0.70436   0.80061   0.02439   0.00000  Uiso   1.00
C69    C     0.66742   0.82614   0.11299   0.00000  Uiso   1.00
H70    H     0.87011   0.95118   0.07101   0.00000  Uiso   1.00
H71    H     0.97622   0.89178   0.13689   0.00000  Uiso   1.00
H72    H     0.87383   0.02546   0.89365   0.00000  Uiso   1.00
H73    H     0.76644   0.95131   0.19989   0.00000  Uiso   1.00
H74    H     0.08413   0.80229   0.18237   0.00000  Uiso   1.00
H75    H     0.86823   0.08417   0.66949   0.00000  Uiso   1.00
H76    H     0.64176   0.92782   0.31524   0.00000  Uiso   1.00
H77    H     0.79507   0.76899   0.85882   0.00000  Uiso   1.00
H78    H     0.89707   0.69959   0.91307   0.00000  Uiso   1.00
H79    H     0.79469   0.83328   0.66982   0.00000  Uiso   1.00
H80    H     0.68729   0.75913   0.97605   0.00000  Uiso   1.00
H81    H     0.01989   0.64631   0.00070   0.00000  Uiso   1.00
H82    H     0.80399   0.92819   0.48782   0.00000  Uiso   1.00
H83    H     0.57752   0.77183   0.13357   0.00000  Uiso   1.00
O84    O     0.12047   0.68194   0.13101   0.00000  Uiso   1.00
O85    O     0.83721   0.05176   0.45814   0.00000  Uiso   1.00
O86    O     0.54009   0.84663   0.30536   0.00000  Uiso   1.00
N87    N     0.05501   0.77510   0.13219   0.00000  Uiso   1.00
N88    N     0.85317   0.03864   0.65267   0.00000  Uiso   1.00
N89    N     0.64143   0.89247   0.25638   0.00000  Uiso   1.00
N90    N     0.02044   0.69116   0.03443   0.00000  Uiso   1.00
N91    N     0.81860   0.95471   0.55492   0.00000  Uiso   1.00
N92    N     0.60686   0.80854   0.15862   0.00000  Uiso   1.00
C93    C     0.85292   0.59057   0.47760   0.00000  Uiso   1.00
C94    C     0.90016   0.64810   0.47122   0.00000  Uiso   1.00
C95    C     0.95914   0.64972   0.41141   0.00000  Uiso   1.00
C96    C     0.99531   0.70692   0.41626   0.00000  Uiso   1.00
C97    C     0.07204   0.78810   0.39690   0.00000  Uiso   1.00
C98    C     0.84454   0.57547   0.60338   0.00000  Uiso   1.00
C99    C     0.85675   0.51602   0.65469   0.00000  Uiso   1.00
C100   C     0.84609   0.51208   0.77080   0.00000  Uiso   1.00
C101   C     0.83643   0.48048   0.95661   0.00000  Uiso   1.00
C102   C     0.78620   0.61576   0.43699   0.00000  Uiso   1.00
C103   C     0.74933   0.59018   0.34842   0.00000  Uiso   1.00
C104   C     0.68954   0.62015   0.32445   0.00000  Uiso   1.00
C105   C     0.58928   0.65110   0.25191   0.00000  Uiso   1.00
C106   C     0.81227   0.68927   0.59256   0.00000  Uiso   1.00
C107   C     0.87808   0.70171   0.53367   0.00000  Uiso   1.00
C108   C     0.91417   0.75893   0.53860   0.00000  Uiso   1.00
C109   C     0.97319   0.76063   0.47881   0.00000  Uiso   1.00
C110   C     0.82246   0.62908   0.66583   0.00000  Uiso   1.00
C111   C     0.81178   0.62523   0.78189   0.00000  Uiso   1.00
C112   C     0.82397   0.56579   0.83336   0.00000  Uiso   1.00
C113   C     0.76411   0.66937   0.49943   0.00000  Uiso   1.00
C114   C     0.70436   0.69939   0.47561   0.00000  Uiso   1.00
C115   C     0.66742   0.67386   0.38701   0.00000  Uiso   1.00
H116   H     0.87011   0.54882   0.42899   0.00000  Uiso   1.00
H117   H     0.97622   0.60822   0.36311   0.00000  Uiso   1.00
H118   H     0.87383   0.47454   0.60635   0.00000  Uiso   1.00
H119   H     0.76644   0.54869   0.30011   0.00000  Uiso   1.00
H120   H     0.08413   0.69771   0.31763   0.00000  Uiso   1.00
H121   H     0.86823   0.41583   0.83051   0.00000  Uiso   1.00
H122   H     0.64176   0.57218   0.18476   0.00000  Uiso   1.00
H123   H     0.79507   0.73101   0.64118   0.00000  Uiso   1.00
H124   H     0.89707   0.80041   0.58693   0.00000  Uiso   1.00
H125   H     0.79469   0.66672   0.83018   0.00000  Uiso   1.00
H126   H     0.68729   0.74087   0.52395   0.00000  Uiso   1.00
H127   H     0.01989   0.85369   0.49930   0.00000  Uiso   1.00
H128   H     0.80399   0.57181   0.01218   0.00000  Uiso   1.00
H129   H     0.57752   0.72817   0.36643   0.00000  Uiso   1.00
O130   O     0.12047   0.81806   0.36899   0.00000  Uiso   1.00
O131   O     0.83721   0.44824   0.04186   0.00000  Uiso   1.00
O132   O     0.54009   0.65337   0.19464   0.00000  Uiso   1.00
N133   N     0.05501   0.72490   0.36781   0.00000  Uiso   1.00
N134   N     0.85317   0.46136   0.84733   0.00000  Uiso   1.00
N135   N     0.64143   0.60753   0.24362   0.00000  Uiso   1.00
N136   N     0.02044   0.80884   0.46557   0.00000  Uiso   1.00
N137   N     0.81860   0.54529   0.94508   0.00000  Uiso   1.00
N138   N     0.60686   0.69146   0.34138   0.00000  Uiso   1.00
C139   C     0.64708   0.40943   0.47760   0.00000  Uiso   1.00
C140   C     0.59984   0.35190   0.47122   0.00000  Uiso   1.00
C141   C     0.54086   0.35028   0.41141   0.00000  Uiso   1.00
C142   C     0.50469   0.29308   0.41626   0.00000  Uiso   1.00
C143   C     0.42796   0.21190   0.39690   0.00000  Uiso   1.00
C144   C     0.65546   0.42453   0.60338   0.00000  Uiso   1.00
C145   C     0.64325   0.48398   0.65469   0.00000  Uiso   1.00
C146   C     0.65391   0.48792   0.77080   0.00000  Uiso   1.00
C147   C     0.66357   0.51952   0.95661   0.00000  Uiso   1.00
C148   C     0.71380   0.38424   0.43699   0.00000  Uiso   1.00
C149   C     0.75067   0.40982   0.34842   0.00000  Uiso   1.00
C150   C     0.81046   0.37985   0.32445   0.00000  Uiso   1.00
C151   C     0.91072   0.34890   0.25191   0.00000  Uiso   1.00
C152   C     0.68773   0.31073   0.59256   0.00000  Uiso   1.00
C153   C     0.62192   0.29829   0.53367   0.00000  Uiso   1.00
C154   C     0.58583   0.24107   0.53860   0.00000  Uiso   1.00
C155   C     0.52681   0.23937   0.47881   0.00000  Uiso   1.00
C156   C     0.67754   0.37092   0.66583   0.00000  Uiso   1.00
C157   C     0.68822   0.37477   0.78189   0.00000  Uiso   1.00
C158   C     0.67603   0.43421   0.83336   0.00000  Uiso   1.00
C159   C     0.73589   0.33063   0.49943   0.00000  Uiso   1.00
C160   C     0.79564   0.30061   0.47561   0.00000  Uiso   1.00
C161   C     0.83258   0.32614   0.38701   0.00000  Uiso   1.00
H162   H     0.62989   0.45118   0.42899   0.00000  Uiso   1.00
H163   H     0.52378   0.39178   0.36311   0.00000  Uiso   1.00
H164   H     0.62617   0.52546   0.60635   0.00000  Uiso   1.00
H165   H     0.73356   0.45131   0.30011   0.00000  Uiso   1.00
H166   H     0.41587   0.30229   0.31763   0.00000  Uiso   1.00
H167   H     0.63177   0.58417   0.83051   0.00000  Uiso   1.00
H168   H     0.85824   0.42782   0.18476   0.00000  Uiso   1.00
H169   H     0.70493   0.26899   0.64118   0.00000  Uiso   1.00
H170   H     0.60293   0.19959   0.58693   0.00000  Uiso   1.00
H171   H     0.70531   0.33328   0.83018   0.00000  Uiso   1.00
H172   H     0.81271   0.25913   0.52395   0.00000  Uiso   1.00
H173   H     0.48011   0.14631   0.49930   0.00000  Uiso   1.00
H174   H     0.69601   0.42819   0.01218   0.00000  Uiso   1.00
H175   H     0.92248   0.27183   0.36643   0.00000  Uiso   1.00
O176   O     0.37953   0.18194   0.36899   0.00000  Uiso   1.00
O177   O     0.66279   0.55176   0.04186   0.00000  Uiso   1.00
O178   O     0.95991   0.34663   0.19464   0.00000  Uiso   1.00
N179   N     0.44499   0.27510   0.36781   0.00000  Uiso   1.00
N180   N     0.64683   0.53864   0.84733   0.00000  Uiso   1.00
N181   N     0.85857   0.39247   0.24362   0.00000  Uiso   1.00
N182   N     0.47956   0.19116   0.46557   0.00000  Uiso   1.00
N183   N     0.68140   0.45471   0.94508   0.00000  Uiso   1.00
N184   N     0.89314   0.30854   0.34138   0.00000  Uiso   1.00
C185   C     0.35292   0.90943   0.97760   0.00000  Uiso   1.00
C186   C     0.40016   0.85190   0.97122   0.00000  Uiso   1.00
C187   C     0.45914   0.85028   0.91141   0.00000  Uiso   1.00
C188   C     0.49531   0.79308   0.91626   0.00000  Uiso   1.00
C189   C     0.57204   0.71190   0.89690   0.00000  Uiso   1.00
C190   C     0.34454   0.92453   0.10338   0.00000  Uiso   1.00
C191   C     0.35675   0.98398   0.15469   0.00000  Uiso   1.00
C192   C     0.34609   0.98792   0.27080   0.00000  Uiso   1.00
C193   C     0.33643   0.01952   0.45661   0.00000  Uiso   1.00
C194   C     0.28620   0.88424   0.93699   0.00000  Uiso   1.00
C195   C     0.24933   0.90982   0.84842   0.00000  Uiso   1.00
C196   C     0.18954   0.87985   0.82445   0.00000  Uiso   1.00
C197   C     0.08928   0.84890   0.75191   0.00000  Uiso   1.00
C198   C     0.31227   0.81073   0.09256   0.00000  Uiso   1.00
C199   C     0.37808   0.79829   0.03367   0.00000  Uiso   1.00
C200   C     0.41417   0.74107   0.03860   0.00000  Uiso   1.00
C201   C     0.47319   0.73937   0.97881   0.00000  Uiso   1.00
C202   C     0.32246   0.87092   0.16583   0.00000  Uiso   1.00
C203   C     0.31178   0.87477   0.28189   0.00000  Uiso   1.00
C204   C     0.32397   0.93421   0.33336   0.00000  Uiso   1.00
C205   C     0.26411   0.83063   0.99943   0.00000  Uiso   1.00
C206   C     0.20436   0.80061   0.97561   0.00000  Uiso   1.00
C207   C     0.16742   0.82614   0.88701   0.00000  Uiso   1.00
H208   H     0.37011   0.95118   0.92899   0.00000  Uiso   1.00
H209   H     0.47622   0.89178   0.86311   0.00000  Uiso   1.00
H210   H     0.37383   0.02546   0.10635   0.00000  Uiso   1.00
H211   H     0.26644   0.95131   0.80011   0.00000  Uiso   1.00
H212   H     0.58413   0.80229   0.81763   0.00000  Uiso   1.00
H213   H     0.36823   0.08417   0.33051   0.00000  Uiso   1.00
H214   H     0.14176   0.92782   0.68476   0.00000  Uiso   1.00
H215   H     0.29507   0.76899   0.14118   0.00000  Uiso   1.00
H216   H     0.39707   0.69959   0.08693   0.00000  Uiso   1.00
H217   H     0.29469   0.83328   0.33018   0.00000  Uiso   1.00
H218   H     0.18729   0.75913   0.02395   0.00000  Uiso   1.00
H219   H     0.51989   0.64631   0.99930   0.00000  Uiso   1.00
H220   H     0.30399   0.92819   0.51218   0.00000  Uiso   1.00
H221   H     0.07752   0.77183   0.86643   0.00000  Uiso   1.00
O222   O     0.62047   0.68194   0.86899   0.00000  Uiso   1.00
O223   O     0.33721   0.05176   0.54186   0.00000  Uiso   1.00
O224   O     0.04009   0.84663   0.69464   0.00000  Uiso   1.00
N225   N     0.55501   0.77510   0.86781   0.00000  Uiso   1.00
N226   N     0.35317   0.03864   0.34733   0.00000  Uiso   1.00
N227   N     0.14143   0.89247   0.74362   0.00000  Uiso   1.00
N228   N     0.52044   0.69116   0.96557   0.00000  Uiso   1.00
N229   N     0.31860   0.95471   0.44508   0.00000  Uiso   1.00
N230   N     0.10686   0.80854   0.84138   0.00000  Uiso   1.00
C231   C     0.14708   0.09057   0.97760   0.00000  Uiso   1.00
C232   C     0.09984   0.14810   0.97122   0.00000  Uiso   1.00
C233   C     0.04086   0.14972   0.91141   0.00000  Uiso   1.00
C234   C     0.00469   0.20692   0.91626   0.00000  Uiso   1.00
C235   C     0.92796   0.28810   0.89690   0.00000  Uiso   1.00
C236   C     0.15546   0.07547   0.10338   0.00000  Uiso   1.00
C237   C     0.14325   0.01602   0.15469   0.00000  Uiso   1.00
C238   C     0.15391   0.01208   0.27080   0.00000  Uiso   1.00
C239   C     0.16357   0.98048   0.45661   0.00000  Uiso   1.00
C240   C     0.21380   0.11576   0.93699   0.00000  Uiso   1.00
C241   C     0.25067   0.09018   0.84842   0.00000  Uiso   1.00
C242   C     0.31046   0.12015   0.82445   0.00000  Uiso   1.00
C243   C     0.41072   0.15110   0.75191   0.00000  Uiso   1.00
C244   C     0.18773   0.18927   0.09256   0.00000  Uiso   1.00
C245   C     0.12192   0.20171   0.03367   0.00000  Uiso   1.00
C246   C     0.08583   0.25893   0.03860   0.00000  Uiso   1.00
C247   C     0.02681   0.26063   0.97881   0.00000  Uiso   1.00
C248   C     0.17754   0.12908   0.16583   0.00000  Uiso   1.00
C249   C     0.18822   0.12523   0.28189   0.00000  Uiso   1.00
C250   C     0.17603   0.06579   0.33336   0.00000  Uiso   1.00
C251   C     0.23589   0.16937   0.99943   0.00000  Uiso   1.00
C252   C     0.29564   0.19939   0.97561   0.00000  Uiso   1.00
C253   C     0.33258   0.17386   0.88701   0.00000  Uiso   1.00
H254   H     0.12989   0.04882   0.92899   0.00000  Uiso   1.00
H255   H     0.02378   0.10822   0.86311   0.00000  Uiso   1.00
H256   H     0.12617   0.97454   0.10635   0.00000  Uiso   1.00
H257   H     0.23356   0.04869   0.80011   0.00000  Uiso   1.00
H258   H     0.91587   0.19771   0.81763   0.00000  Uiso   1.00
H259   H     0.13177   0.91583   0.33051   0.00000  Uiso   1.00
H260   H     0.35824   0.07218   0.68476   0.00000  Uiso   1.00
H261   H     0.20493   0.23101   0.14118   0.00000  Uiso   1.00
H262   H     0.10293   0.30041   0.08693   0.00000  Uiso   1.00
H263   H     0.20531   0.16672   0.33018   0.00000  Uiso   1.00
H264   H     0.31271   0.24087   0.02395   0.00000  Uiso   1.00
H265   H     0.98011   0.35369   0.99930   0.00000  Uiso   1.00
H266   H     0.19601   0.07181   0.51218   0.00000  Uiso   1.00
H267   H     0.42248   0.22817   0.86643   0.00000  Uiso   1.00
O268   O     0.87953   0.31806   0.86899   0.00000  Uiso   1.00
O269   O     0.16279   0.94824   0.54186   0.00000  Uiso   1.00
O270   O     0.45991   0.15337   0.69464   0.00000  Uiso   1.00
N271   N     0.94499   0.22490   0.86781   0.00000  Uiso   1.00
N272   N     0.14683   0.96136   0.34733   0.00000  Uiso   1.00
N273   N     0.35857   0.10753   0.74362   0.00000  Uiso   1.00
N274   N     0.97956   0.30884   0.96557   0.00000  Uiso   1.00
N275   N     0.18140   0.04529   0.44508   0.00000  Uiso   1.00
N276   N     0.39314   0.19146   0.84138   0.00000  Uiso   1.00
C277   C     0.14708   0.40943   0.52240   0.00000  Uiso   1.00
C278   C     0.09984   0.35190   0.52878   0.00000  Uiso   1.00
C279   C     0.04086   0.35028   0.58859   0.00000  Uiso   1.00
C280   C     0.00469   0.29308   0.58374   0.00000  Uiso   1.00
C281   C     0.92796   0.21190   0.60310   0.00000  Uiso   1.00
C282   C     0.15546   0.42453   0.39662   0.00000  Uiso   1.00
C283   C     0.14325   0.48398   0.34531   0.00000  Uiso   1.00
C284   C     0.15391   0.48792   0.22920   0.00000  Uiso   1.00
C285   C     0.16357   0.51952   0.04339   0.00000  Uiso   1.00
C286   C     0.21380   0.38424   0.56301   0.00000  Uiso   1.00
C287   C     0.25067   0.40982   0.65158   0.00000  Uiso   1.00
C288   C     0.31046   0.37985   0.67555   0.00000  Uiso   1.00
C289   C     0.41072   0.34890   0.74809   0.00000  Uiso   1.00
C290   C     0.18773   0.31073   0.40744   0.00000  Uiso   1.00
C291   C     0.12192   0.29829   0.46633   0.00000  Uiso   1.00
C292   C     0.08583   0.24107   0.46140   0.00000  Uiso   1.00
C293   C     0.02681   0.23937   0.52119   0.00000  Uiso   1.00
C294   C     0.17754   0.37092   0.33417   0.00000  Uiso   1.00
C295   C     0.18822   0.37477   0.21811   0.00000  Uiso   1.00
C296   C     0.17603   0.43421   0.16664   0.00000  Uiso   1.00
C297   C     0.23589   0.33063   0.50057   0.00000  Uiso   1.00
C298   C     0.29564   0.30061   0.52439   0.00000  Uiso   1.00
C299   C     0.33258   0.32614   0.61299   0.00000  Uiso   1.00
H300   H     0.12989   0.45118   0.57101   0.00000  Uiso   1.00
H301   H     0.02378   0.39178   0.63689   0.00000  Uiso   1.00
H302   H     0.12617   0.52546   0.39365   0.00000  Uiso   1.00
H303   H     0.23356   0.45131   0.69989   0.00000  Uiso   1.00
H304   H     0.91587   0.30229   0.68237   0.00000  Uiso   1.00
H305   H     0.13177   0.58417   0.16949   0.00000  Uiso   1.00
H306   H     0.35824   0.42782   0.81524   0.00000  Uiso   1.00
H307   H     0.20493   0.26899   0.35882   0.00000  Uiso   1.00
H308   H     0.10293   0.19959   0.41307   0.00000  Uiso   1.00
H309   H     0.20531   0.33328   0.16982   0.00000  Uiso   1.00
H310   H     0.31271   0.25913   0.47605   0.00000  Uiso   1.00
H311   H     0.98011   0.14631   0.50070   0.00000  Uiso   1.00
H312   H     0.19601   0.42819   0.98782   0.00000  Uiso   1.00
H313   H     0.42248   0.27183   0.63357   0.00000  Uiso   1.00
O314   O     0.87953   0.18194   0.63101   0.00000  Uiso   1.00
O315   O     0.16279   0.55176   0.95814   0.00000  Uiso   1.00
O316   O     0.45991   0.34663   0.80536   0.00000  Uiso   1.00
N317   N     0.94499   0.27510   0.63219   0.00000  Uiso   1.00
N318   N     0.14683   0.53864   0.15267   0.00000  Uiso   1.00
N319   N     0.35857   0.39247   0.75638   0.00000  Uiso   1.00
N320   N     0.97956   0.19116   0.53443   0.00000  Uiso   1.00
N321   N     0.18140   0.45471   0.05492   0.00000  Uiso   1.00
N322   N     0.39314   0.30854   0.65862   0.00000  Uiso   1.00
C323   C     0.35292   0.59057   0.52240   0.00000  Uiso   1.00
C324   C     0.40016   0.64810   0.52878   0.00000  Uiso   1.00
C325   C     0.45914   0.64972   0.58859   0.00000  Uiso   1.00
C326   C     0.49531   0.70692   0.58374   0.00000  Uiso   1.00
C327   C     0.57204   0.78810   0.60310   0.00000  Uiso   1.00
C328   C     0.34454   0.57547   0.39662   0.00000  Uiso   1.00
C329   C     0.35675   0.51602   0.34531   0.00000  Uiso   1.00
C330   C     0.34609   0.51208   0.22920   0.00000  Uiso   1.00
C331   C     0.33643   0.48048   0.04339   0.00000  Uiso   1.00
C332   C     0.28620   0.61576   0.56301   0.00000  Uiso   1.00
C333   C     0.24933   0.59018   0.65158   0.00000  Uiso   1.00
C334   C     0.18954   0.62015   0.67555   0.00000  Uiso   1.00
C335   C     0.08928   0.65110   0.74809   0.00000  Uiso   1.00
C336   C     0.31227   0.68927   0.40744   0.00000  Uiso   1.00
C337   C     0.37808   0.70171   0.46633   0.00000  Uiso   1.00
C338   C     0.41417   0.75893   0.46140   0.00000  Uiso   1.00
C339   C     0.47319   0.76063   0.52119   0.00000  Uiso   1.00
C340   C     0.32246   0.62908   0.33417   0.00000  Uiso   1.00
C341   C     0.31178   0.62523   0.21811   0.00000  Uiso   1.00
C342   C     0.32397   0.56579   0.16664   0.00000  Uiso   1.00
C343   C     0.26411   0.66937   0.50057   0.00000  Uiso   1.00
C344   C     0.20436   0.69939   0.52439   0.00000  Uiso   1.00
C345   C     0.16742   0.67386   0.61299   0.00000  Uiso   1.00
H346   H     0.37011   0.54882   0.57101   0.00000  Uiso   1.00
H347   H     0.47622   0.60822   0.63689   0.00000  Uiso   1.00
H348   H     0.37383   0.47454   0.39365   0.00000  Uiso   1.00
H349   H     0.26644   0.54869   0.69989   0.00000  Uiso   1.00
H350   H     0.58413   0.69771   0.68237   0.00000  Uiso   1.00
H351   H     0.36823   0.41583   0.16949   0.00000  Uiso   1.00
H352   H     0.14176   0.57218   0.81524   0.00000  Uiso   1.00
H353   H     0.29507   0.73101   0.35882   0.00000  Uiso   1.00
H354   H     0.39707   0.80041   0.41307   0.00000  Uiso   1.00
H355   H     0.29469   0.66672   0.16982   0.00000  Uiso   1.00
H356   H     0.18729   0.74087   0.47605   0.00000  Uiso   1.00
H357   H     0.51989   0.85369   0.50070   0.00000  Uiso   1.00
H358   H     0.30399   0.57181   0.98782   0.00000  Uiso   1.00
H359   H     0.07752   0.72817   0.63357   0.00000  Uiso   1.00
O360   O     0.62047   0.81806   0.63101   0.00000  Uiso   1.00
O361   O     0.33721   0.44824   0.95814   0.00000  Uiso   1.00
O362   O     0.04009   0.65337   0.80536   0.00000  Uiso   1.00
N363   N     0.55501   0.72490   0.63219   0.00000  Uiso   1.00
N364   N     0.35317   0.46136   0.15267   0.00000  Uiso   1.00
N365   N     0.14143   0.60753   0.75638   0.00000  Uiso   1.00
N366   N     0.52044   0.80884   0.53443   0.00000  Uiso   1.00
N367   N     0.31860   0.54529   0.05492   0.00000  Uiso   1.00
N368   N     0.10686   0.69146   0.65862   0.00000  Uiso   1.00
