data_job_02226
_audit_creation_date              2018-12-19
_audit_creation_method            'Materials Studio'
_symmetry_space_group_name_H-M    'P1'
_symmetry_Int_Tables_number       1
_symmetry_cell_setting            triclinic
loop_
_symmetry_equiv_pos_as_xyz
  x,y,z
_cell_length_a                    12.3152
_cell_length_b                    10.5508
_cell_length_c                    21.4200
_cell_angle_alpha                 90.0000
_cell_angle_beta                  99.9064
_cell_angle_gamma                 90.0000
loop_
_atom_site_label
_atom_site_type_symbol
_atom_site_fract_x
_atom_site_fract_y
_atom_site_fract_z
_atom_site_U_iso_or_equiv
_atom_site_adp_type
_atom_site_occupancy
C1     C     0.29339   0.77580   0.43969   0.00000  Uiso   1.00
C2     C     0.27381   0.63455   0.44799   0.00000  Uiso   1.00
C3     C     0.30040   0.56706   0.50415   0.00000  Uiso   1.00
C4     C     0.27587   0.43853   0.50192   0.00000  Uiso   1.00
C5     C     0.25303   0.22814   0.52338   0.00000  Uiso   1.00
C6     C     0.36282   0.78627   0.38744   0.00000  Uiso   1.00
C7     C     0.46423   0.84636   0.39269   0.00000  Uiso   1.00
C8     C     0.51462   0.84556   0.33948   0.00000  Uiso   1.00
C9     C     0.62994   0.87079   0.26691   0.00000  Uiso   1.00
C10    C     0.18129   0.83239   0.41248   0.00000  Uiso   1.00
C11    C     0.13007   0.93129   0.43877   0.00000  Uiso   1.00
C12    C     0.02763   0.96933   0.40663   0.00000  Uiso   1.00
C13    C     0.86109   0.06617   0.37295   0.00000  Uiso   1.00
C14    C     0.20255   0.66754   0.33585   0.00000  Uiso   1.00
C15    C     0.22448   0.57575   0.39158   0.00000  Uiso   1.00
C16    C     0.19990   0.44728   0.38926   0.00000  Uiso   1.00
C17    C     0.22644   0.37962   0.44541   0.00000  Uiso   1.00
C18    C     0.31349   0.72747   0.33103   0.00000  Uiso   1.00
C19    C     0.36373   0.72658   0.27780   0.00000  Uiso   1.00
C20    C     0.46520   0.78665   0.28297   0.00000  Uiso   1.00
C21    C     0.13195   0.77358   0.35607   0.00000  Uiso   1.00
C22    C     0.02957   0.81150   0.32388   0.00000  Uiso   1.00
C23    C     0.97821   0.91042   0.35012   0.00000  Uiso   1.00
H24    H     0.33181   0.82158   0.48360   0.00000  Uiso   1.00
H25    H     0.33859   0.61260   0.54779   0.00000  Uiso   1.00
H26    H     0.50239   0.89187   0.43634   0.00000  Uiso   1.00
H27    H     0.16828   0.97677   0.48242   0.00000  Uiso   1.00
H28    H     0.32439   0.35497   0.59408   0.00000  Uiso   1.00
H29    H     0.66976   0.94385   0.35908   0.00000  Uiso   1.00
H30    H     0.96522   0.12289   0.45624   0.00000  Uiso   1.00
H31    H     0.16414   0.62176   0.29193   0.00000  Uiso   1.00
H32    H     0.16172   0.40180   0.34561   0.00000  Uiso   1.00
H33    H     0.32552   0.68107   0.23416   0.00000  Uiso   1.00
H34    H     0.99141   0.76597   0.28024   0.00000  Uiso   1.00
H35    H     0.18084   0.18387   0.42998   0.00000  Uiso   1.00
H36    H     0.52621   0.77277   0.19498   0.00000  Uiso   1.00
H37    H     0.82167   0.95179   0.29214   0.00000  Uiso   1.00
O38    O     0.25408   0.12833   0.55080   0.00000  Uiso   1.00
O39    O     0.70718   0.90095   0.24248   0.00000  Uiso   1.00
O40    O     0.78285   0.13582   0.36995   0.00000  Uiso   1.00
N41    N     0.29092   0.34489   0.54810   0.00000  Uiso   1.00
N42    N     0.61382   0.89545   0.32839   0.00000  Uiso   1.00
N43    N     0.95516   0.06285   0.41922   0.00000  Uiso   1.00
N44    N     0.21367   0.25283   0.45980   0.00000  Uiso   1.00
N45    N     0.53658   0.80338   0.24008   0.00000  Uiso   1.00
N46    N     0.87791   0.97079   0.33091   0.00000  Uiso   1.00
C47    C     0.70661   0.27580   0.06031   0.00000  Uiso   1.00
C48    C     0.72619   0.13455   0.05201   0.00000  Uiso   1.00
C49    C     0.69960   0.06706   0.99585   0.00000  Uiso   1.00
C50    C     0.72413   0.93853   0.99808   0.00000  Uiso   1.00
C51    C     0.74697   0.72814   0.97662   0.00000  Uiso   1.00
C52    C     0.63718   0.28627   0.11256   0.00000  Uiso   1.00
C53    C     0.53577   0.34636   0.10731   0.00000  Uiso   1.00
C54    C     0.48538   0.34556   0.16052   0.00000  Uiso   1.00
C55    C     0.37006   0.37079   0.23309   0.00000  Uiso   1.00
C56    C     0.81871   0.33239   0.08752   0.00000  Uiso   1.00
C57    C     0.86993   0.43129   0.06123   0.00000  Uiso   1.00
C58    C     0.97237   0.46933   0.09337   0.00000  Uiso   1.00
C59    C     0.13891   0.56617   0.12705   0.00000  Uiso   1.00
C60    C     0.79745   0.16754   0.16415   0.00000  Uiso   1.00
C61    C     0.77552   0.07575   0.10842   0.00000  Uiso   1.00
C62    C     0.80010   0.94728   0.11074   0.00000  Uiso   1.00
C63    C     0.77356   0.87962   0.05459   0.00000  Uiso   1.00
C64    C     0.68651   0.22747   0.16897   0.00000  Uiso   1.00
C65    C     0.63627   0.22658   0.22220   0.00000  Uiso   1.00
C66    C     0.53480   0.28665   0.21703   0.00000  Uiso   1.00
C67    C     0.86805   0.27358   0.14393   0.00000  Uiso   1.00
C68    C     0.97043   0.31150   0.17612   0.00000  Uiso   1.00
C69    C     0.02179   0.41042   0.14988   0.00000  Uiso   1.00
H70    H     0.66819   0.32158   0.01640   0.00000  Uiso   1.00
H71    H     0.66141   0.11260   0.95221   0.00000  Uiso   1.00
H72    H     0.49761   0.39187   0.06366   0.00000  Uiso   1.00
H73    H     0.83172   0.47677   0.01758   0.00000  Uiso   1.00
H74    H     0.67561   0.85497   0.90592   0.00000  Uiso   1.00
H75    H     0.33024   0.44385   0.14092   0.00000  Uiso   1.00
H76    H     0.03478   0.62289   0.04376   0.00000  Uiso   1.00
H77    H     0.83586   0.12176   0.20807   0.00000  Uiso   1.00
H78    H     0.83828   0.90180   0.15439   0.00000  Uiso   1.00
H79    H     0.67448   0.18107   0.26584   0.00000  Uiso   1.00
H80    H     0.00859   0.26597   0.21976   0.00000  Uiso   1.00
H81    H     0.81916   0.68387   0.07002   0.00000  Uiso   1.00
H82    H     0.47379   0.27277   0.30502   0.00000  Uiso   1.00
H83    H     0.17833   0.45179   0.20786   0.00000  Uiso   1.00
O84    O     0.74592   0.62833   0.94920   0.00000  Uiso   1.00
O85    O     0.29282   0.40095   0.25752   0.00000  Uiso   1.00
O86    O     0.21715   0.63582   0.13005   0.00000  Uiso   1.00
N87    N     0.70908   0.84489   0.95190   0.00000  Uiso   1.00
N88    N     0.38618   0.39545   0.17161   0.00000  Uiso   1.00
N89    N     0.04484   0.56285   0.08078   0.00000  Uiso   1.00
N90    N     0.78633   0.75283   0.04020   0.00000  Uiso   1.00
N91    N     0.46342   0.30338   0.25992   0.00000  Uiso   1.00
N92    N     0.12209   0.47079   0.16909   0.00000  Uiso   1.00
C93    C     0.70661   0.22420   0.56031   0.00000  Uiso   1.00
C94    C     0.72619   0.36545   0.55201   0.00000  Uiso   1.00
C95    C     0.69960   0.43294   0.49585   0.00000  Uiso   1.00
C96    C     0.72413   0.56147   0.49808   0.00000  Uiso   1.00
C97    C     0.74697   0.77186   0.47662   0.00000  Uiso   1.00
C98    C     0.63718   0.21373   0.61256   0.00000  Uiso   1.00
C99    C     0.53577   0.15364   0.60731   0.00000  Uiso   1.00
C100   C     0.48538   0.15444   0.66052   0.00000  Uiso   1.00
C101   C     0.37006   0.12921   0.73309   0.00000  Uiso   1.00
C102   C     0.81871   0.16761   0.58752   0.00000  Uiso   1.00
C103   C     0.86993   0.06871   0.56123   0.00000  Uiso   1.00
C104   C     0.97237   0.03067   0.59337   0.00000  Uiso   1.00
C105   C     0.13891   0.93383   0.62705   0.00000  Uiso   1.00
C106   C     0.79745   0.33246   0.66415   0.00000  Uiso   1.00
C107   C     0.77552   0.42425   0.60842   0.00000  Uiso   1.00
C108   C     0.80010   0.55272   0.61074   0.00000  Uiso   1.00
C109   C     0.77356   0.62038   0.55459   0.00000  Uiso   1.00
C110   C     0.68651   0.27253   0.66897   0.00000  Uiso   1.00
C111   C     0.63627   0.27342   0.72220   0.00000  Uiso   1.00
C112   C     0.53480   0.21335   0.71703   0.00000  Uiso   1.00
C113   C     0.86805   0.22642   0.64393   0.00000  Uiso   1.00
C114   C     0.97043   0.18850   0.67612   0.00000  Uiso   1.00
C115   C     0.02179   0.08958   0.64988   0.00000  Uiso   1.00
H116   H     0.66819   0.17842   0.51640   0.00000  Uiso   1.00
H117   H     0.66141   0.38740   0.45221   0.00000  Uiso   1.00
H118   H     0.49761   0.10813   0.56366   0.00000  Uiso   1.00
H119   H     0.83172   0.02323   0.51758   0.00000  Uiso   1.00
H120   H     0.67561   0.64503   0.40592   0.00000  Uiso   1.00
H121   H     0.33024   0.05615   0.64092   0.00000  Uiso   1.00
H122   H     0.03478   0.87711   0.54376   0.00000  Uiso   1.00
H123   H     0.83586   0.37824   0.70807   0.00000  Uiso   1.00
H124   H     0.83828   0.59820   0.65439   0.00000  Uiso   1.00
H125   H     0.67448   0.31893   0.76584   0.00000  Uiso   1.00
H126   H     0.00859   0.23403   0.71976   0.00000  Uiso   1.00
H127   H     0.81916   0.81613   0.57002   0.00000  Uiso   1.00
H128   H     0.47379   0.22723   0.80502   0.00000  Uiso   1.00
H129   H     0.17833   0.04821   0.70786   0.00000  Uiso   1.00
O130   O     0.74592   0.87167   0.44920   0.00000  Uiso   1.00
O131   O     0.29282   0.09905   0.75752   0.00000  Uiso   1.00
O132   O     0.21715   0.86418   0.63005   0.00000  Uiso   1.00
N133   N     0.70908   0.65511   0.45190   0.00000  Uiso   1.00
N134   N     0.38618   0.10455   0.67161   0.00000  Uiso   1.00
N135   N     0.04484   0.93715   0.58078   0.00000  Uiso   1.00
N136   N     0.78633   0.74717   0.54020   0.00000  Uiso   1.00
N137   N     0.46342   0.19662   0.75992   0.00000  Uiso   1.00
N138   N     0.12209   0.02921   0.66909   0.00000  Uiso   1.00
C139   C     0.29339   0.72420   0.93969   0.00000  Uiso   1.00
C140   C     0.27381   0.86545   0.94799   0.00000  Uiso   1.00
C141   C     0.30040   0.93294   0.00415   0.00000  Uiso   1.00
C142   C     0.27587   0.06147   0.00192   0.00000  Uiso   1.00
C143   C     0.25303   0.27186   0.02338   0.00000  Uiso   1.00
C144   C     0.36282   0.71373   0.88744   0.00000  Uiso   1.00
C145   C     0.46423   0.65364   0.89269   0.00000  Uiso   1.00
C146   C     0.51462   0.65444   0.83948   0.00000  Uiso   1.00
C147   C     0.62994   0.62921   0.76691   0.00000  Uiso   1.00
C148   C     0.18129   0.66761   0.91248   0.00000  Uiso   1.00
C149   C     0.13007   0.56871   0.93877   0.00000  Uiso   1.00
C150   C     0.02763   0.53067   0.90663   0.00000  Uiso   1.00
C151   C     0.86109   0.43383   0.87295   0.00000  Uiso   1.00
C152   C     0.20255   0.83246   0.83585   0.00000  Uiso   1.00
C153   C     0.22448   0.92425   0.89158   0.00000  Uiso   1.00
C154   C     0.19990   0.05272   0.88926   0.00000  Uiso   1.00
C155   C     0.22644   0.12038   0.94541   0.00000  Uiso   1.00
C156   C     0.31349   0.77253   0.83103   0.00000  Uiso   1.00
C157   C     0.36373   0.77342   0.77780   0.00000  Uiso   1.00
C158   C     0.46520   0.71335   0.78297   0.00000  Uiso   1.00
C159   C     0.13195   0.72642   0.85607   0.00000  Uiso   1.00
C160   C     0.02957   0.68850   0.82388   0.00000  Uiso   1.00
C161   C     0.97821   0.58958   0.85012   0.00000  Uiso   1.00
H162   H     0.33181   0.67842   0.98360   0.00000  Uiso   1.00
H163   H     0.33859   0.88740   0.04779   0.00000  Uiso   1.00
H164   H     0.50239   0.60813   0.93634   0.00000  Uiso   1.00
H165   H     0.16828   0.52323   0.98242   0.00000  Uiso   1.00
H166   H     0.32439   0.14503   0.09408   0.00000  Uiso   1.00
H167   H     0.66976   0.55615   0.85908   0.00000  Uiso   1.00
H168   H     0.96522   0.37711   0.95624   0.00000  Uiso   1.00
H169   H     0.16414   0.87824   0.79193   0.00000  Uiso   1.00
H170   H     0.16172   0.09820   0.84561   0.00000  Uiso   1.00
H171   H     0.32552   0.81893   0.73416   0.00000  Uiso   1.00
H172   H     0.99141   0.73403   0.78024   0.00000  Uiso   1.00
H173   H     0.18084   0.31613   0.92998   0.00000  Uiso   1.00
H174   H     0.52621   0.72723   0.69498   0.00000  Uiso   1.00
H175   H     0.82167   0.54821   0.79214   0.00000  Uiso   1.00
O176   O     0.25408   0.37167   0.05080   0.00000  Uiso   1.00
O177   O     0.70718   0.59905   0.74248   0.00000  Uiso   1.00
O178   O     0.78285   0.36418   0.86995   0.00000  Uiso   1.00
N179   N     0.29092   0.15511   0.04810   0.00000  Uiso   1.00
N180   N     0.61382   0.60455   0.82839   0.00000  Uiso   1.00
N181   N     0.95516   0.43715   0.91922   0.00000  Uiso   1.00
N182   N     0.21367   0.24717   0.95980   0.00000  Uiso   1.00
N183   N     0.53658   0.69662   0.74008   0.00000  Uiso   1.00
N184   N     0.87791   0.52921   0.83091   0.00000  Uiso   1.00
