data_job_05629
_audit_creation_date              2018-12-19
_audit_creation_method            'Materials Studio'
_symmetry_space_group_name_H-M    'P1'
_symmetry_Int_Tables_number       1
_symmetry_cell_setting            triclinic
loop_
_symmetry_equiv_pos_as_xyz
  x,y,z
_cell_length_a                    10.4448
_cell_length_b                    10.4448
_cell_length_c                    45.0095
_cell_angle_alpha                 90.0000
_cell_angle_beta                  90.0000
_cell_angle_gamma                 90.0000
loop_
_atom_site_label
_atom_site_type_symbol
_atom_site_fract_x
_atom_site_fract_y
_atom_site_fract_z
_atom_site_U_iso_or_equiv
_atom_site_adp_type
_atom_site_occupancy
C1     C     0.80700   0.32716   0.86613   0.00000  Uiso   1.00
C2     C     0.76024   0.41812   0.84195   0.00000  Uiso   1.00
C3     C     0.63322   0.44433   0.83526   0.00000  Uiso   1.00
C4     C     0.61029   0.53032   0.81234   0.00000  Uiso   1.00
C5     C     0.52239   0.66274   0.77717   0.00000  Uiso   1.00
C6     C     0.89302   0.23000   0.85060   0.00000  Uiso   1.00
C7     C     0.87764   0.09805   0.85118   0.00000  Uiso   1.00
C8     C     0.96650   0.02567   0.83555   0.00000  Uiso   1.00
C9     C     0.08478   0.86604   0.81382   0.00000  Uiso   1.00
C10    C     0.89464   0.40605   0.88610   0.00000  Uiso   1.00
C11    C     0.88065   0.42209   0.91654   0.00000  Uiso   1.00
C12    C     0.97090   0.49792   0.93080   0.00000  Uiso   1.00
C13    C     0.09170   0.61163   0.96420   0.00000  Uiso   1.00
C14    C     0.99217   0.43326   0.83734   0.00000  Uiso   1.00
C15    C     0.86082   0.47575   0.82631   0.00000  Uiso   1.00
C16    C     0.83808   0.56172   0.80340   0.00000  Uiso   1.00
C17    C     0.71105   0.58806   0.79668   0.00000  Uiso   1.00
C18    C     0.99359   0.28763   0.83496   0.00000  Uiso   1.00
C19    C     0.08250   0.21544   0.81933   0.00000  Uiso   1.00
C20    C     0.06725   0.08341   0.81989   0.00000  Uiso   1.00
C21    C     0.99522   0.46369   0.87047   0.00000  Uiso   1.00
C22    C     0.08551   0.53949   0.88469   0.00000  Uiso   1.00
C23    C     0.07166   0.55565   0.91514   0.00000  Uiso   1.00
H24    H     0.72871   0.28229   0.87830   0.00000  Uiso   1.00
H25    H     0.55541   0.39970   0.84736   0.00000  Uiso   1.00
H26    H     0.79980   0.05348   0.86329   0.00000  Uiso   1.00
H27    H     0.80281   0.37748   0.92863   0.00000  Uiso   1.00
H28    H     0.40764   0.55526   0.80616   0.00000  Uiso   1.00
H29    H     0.92297   0.82522   0.83974   0.00000  Uiso   1.00
H30    H     0.92932   0.50844   0.97754   0.00000  Uiso   1.00
H31    H     0.07047   0.47813   0.82516   0.00000  Uiso   1.00
H32    H     0.91593   0.60631   0.79131   0.00000  Uiso   1.00
H33    H     0.16032   0.26007   0.80723   0.00000  Uiso   1.00
H34    H     0.16333   0.58407   0.87258   0.00000  Uiso   1.00
H35    H     0.70025   0.72294   0.76066   0.00000  Uiso   1.00
H36    H     0.21558   0.99289   0.79425   0.00000  Uiso   1.00
H37    H     0.22193   0.67612   0.93204   0.00000  Uiso   1.00
O38    O     0.44612   0.71985   0.76209   0.00000  Uiso   1.00
O39    O     0.12222   0.76206   0.80616   0.00000  Uiso   1.00
O40    O     0.13054   0.65844   0.98694   0.00000  Uiso   1.00
N41    N     0.49771   0.57716   0.80010   0.00000  Uiso   1.00
N42    N     0.97951   0.89461   0.83150   0.00000  Uiso   1.00
N43    N     0.98546   0.53334   0.96033   0.00000  Uiso   1.00
N44    N     0.65517   0.66739   0.77562   0.00000  Uiso   1.00
N45    N     0.13696   0.98483   0.80701   0.00000  Uiso   1.00
N46    N     0.14291   0.62357   0.93584   0.00000  Uiso   1.00
C47    C     0.19300   0.67284   0.36613   0.00000  Uiso   1.00
C48    C     0.23976   0.58188   0.34195   0.00000  Uiso   1.00
C49    C     0.36678   0.55567   0.33526   0.00000  Uiso   1.00
C50    C     0.38971   0.46968   0.31234   0.00000  Uiso   1.00
C51    C     0.47761   0.33726   0.27717   0.00000  Uiso   1.00
C52    C     0.10698   0.77000   0.35060   0.00000  Uiso   1.00
C53    C     0.12236   0.90195   0.35118   0.00000  Uiso   1.00
C54    C     0.03350   0.97433   0.33555   0.00000  Uiso   1.00
C55    C     0.91522   0.13396   0.31382   0.00000  Uiso   1.00
C56    C     0.10536   0.59395   0.38610   0.00000  Uiso   1.00
C57    C     0.11935   0.57791   0.41654   0.00000  Uiso   1.00
C58    C     0.02910   0.50208   0.43080   0.00000  Uiso   1.00
C59    C     0.90830   0.38837   0.46420   0.00000  Uiso   1.00
C60    C     0.00783   0.56674   0.33734   0.00000  Uiso   1.00
C61    C     0.13918   0.52425   0.32631   0.00000  Uiso   1.00
C62    C     0.16192   0.43828   0.30340   0.00000  Uiso   1.00
C63    C     0.28895   0.41194   0.29668   0.00000  Uiso   1.00
C64    C     0.00641   0.71237   0.33496   0.00000  Uiso   1.00
C65    C     0.91750   0.78456   0.31933   0.00000  Uiso   1.00
C66    C     0.93275   0.91659   0.31989   0.00000  Uiso   1.00
C67    C     0.00478   0.53631   0.37047   0.00000  Uiso   1.00
C68    C     0.91449   0.46051   0.38469   0.00000  Uiso   1.00
C69    C     0.92834   0.44435   0.41514   0.00000  Uiso   1.00
H70    H     0.27129   0.71771   0.37830   0.00000  Uiso   1.00
H71    H     0.44459   0.60030   0.34736   0.00000  Uiso   1.00
H72    H     0.20020   0.94652   0.36329   0.00000  Uiso   1.00
H73    H     0.19719   0.62252   0.42863   0.00000  Uiso   1.00
H74    H     0.59236   0.44474   0.30616   0.00000  Uiso   1.00
H75    H     0.07703   0.17478   0.33974   0.00000  Uiso   1.00
H76    H     0.07068   0.49156   0.47754   0.00000  Uiso   1.00
H77    H     0.92953   0.52187   0.32516   0.00000  Uiso   1.00
H78    H     0.08407   0.39369   0.29131   0.00000  Uiso   1.00
H79    H     0.83968   0.73993   0.30723   0.00000  Uiso   1.00
H80    H     0.83667   0.41593   0.37258   0.00000  Uiso   1.00
H81    H     0.29975   0.27706   0.26066   0.00000  Uiso   1.00
H82    H     0.78442   0.00711   0.29425   0.00000  Uiso   1.00
H83    H     0.77807   0.32388   0.43204   0.00000  Uiso   1.00
O84    O     0.55388   0.28015   0.26209   0.00000  Uiso   1.00
O85    O     0.87778   0.23794   0.30616   0.00000  Uiso   1.00
O86    O     0.86946   0.34156   0.48694   0.00000  Uiso   1.00
N87    N     0.50229   0.42284   0.30010   0.00000  Uiso   1.00
N88    N     0.02049   0.10539   0.33150   0.00000  Uiso   1.00
N89    N     0.01454   0.46666   0.46033   0.00000  Uiso   1.00
N90    N     0.34483   0.33261   0.27562   0.00000  Uiso   1.00
N91    N     0.86304   0.01517   0.30701   0.00000  Uiso   1.00
N92    N     0.85709   0.37643   0.43584   0.00000  Uiso   1.00
C93    C     0.67284   0.80700   0.11613   0.00000  Uiso   1.00
C94    C     0.58188   0.76024   0.09195   0.00000  Uiso   1.00
C95    C     0.55567   0.63322   0.08526   0.00000  Uiso   1.00
C96    C     0.46968   0.61029   0.06234   0.00000  Uiso   1.00
C97    C     0.33726   0.52239   0.02717   0.00000  Uiso   1.00
C98    C     0.77000   0.89302   0.10060   0.00000  Uiso   1.00
C99    C     0.90195   0.87764   0.10118   0.00000  Uiso   1.00
C100   C     0.97433   0.96650   0.08555   0.00000  Uiso   1.00
C101   C     0.13396   0.08478   0.06382   0.00000  Uiso   1.00
C102   C     0.59395   0.89464   0.13610   0.00000  Uiso   1.00
C103   C     0.57791   0.88065   0.16654   0.00000  Uiso   1.00
C104   C     0.50208   0.97090   0.18080   0.00000  Uiso   1.00
C105   C     0.38837   0.09170   0.21420   0.00000  Uiso   1.00
C106   C     0.56674   0.99217   0.08734   0.00000  Uiso   1.00
C107   C     0.52425   0.86082   0.07631   0.00000  Uiso   1.00
C108   C     0.43828   0.83808   0.05340   0.00000  Uiso   1.00
C109   C     0.41194   0.71105   0.04668   0.00000  Uiso   1.00
C110   C     0.71237   0.99359   0.08496   0.00000  Uiso   1.00
C111   C     0.78456   0.08250   0.06933   0.00000  Uiso   1.00
C112   C     0.91659   0.06725   0.06989   0.00000  Uiso   1.00
C113   C     0.53631   0.99522   0.12047   0.00000  Uiso   1.00
C114   C     0.46051   0.08551   0.13469   0.00000  Uiso   1.00
C115   C     0.44435   0.07166   0.16514   0.00000  Uiso   1.00
H116   H     0.71771   0.72871   0.12830   0.00000  Uiso   1.00
H117   H     0.60030   0.55541   0.09736   0.00000  Uiso   1.00
H118   H     0.94652   0.79980   0.11329   0.00000  Uiso   1.00
H119   H     0.62252   0.80281   0.17863   0.00000  Uiso   1.00
H120   H     0.44474   0.40764   0.05616   0.00000  Uiso   1.00
H121   H     0.17478   0.92297   0.08974   0.00000  Uiso   1.00
H122   H     0.49156   0.92932   0.22754   0.00000  Uiso   1.00
H123   H     0.52187   0.07047   0.07516   0.00000  Uiso   1.00
H124   H     0.39369   0.91593   0.04131   0.00000  Uiso   1.00
H125   H     0.73993   0.16032   0.05723   0.00000  Uiso   1.00
H126   H     0.41593   0.16333   0.12258   0.00000  Uiso   1.00
H127   H     0.27706   0.70025   0.01066   0.00000  Uiso   1.00
H128   H     0.00711   0.21558   0.04425   0.00000  Uiso   1.00
H129   H     0.32388   0.22193   0.18204   0.00000  Uiso   1.00
O130   O     0.28015   0.44612   0.01209   0.00000  Uiso   1.00
O131   O     0.23794   0.12222   0.05616   0.00000  Uiso   1.00
O132   O     0.34156   0.13054   0.23694   0.00000  Uiso   1.00
N133   N     0.42284   0.49771   0.05010   0.00000  Uiso   1.00
N134   N     0.10539   0.97951   0.08150   0.00000  Uiso   1.00
N135   N     0.46666   0.98546   0.21033   0.00000  Uiso   1.00
N136   N     0.33261   0.65517   0.02562   0.00000  Uiso   1.00
N137   N     0.01517   0.13696   0.05701   0.00000  Uiso   1.00
N138   N     0.37643   0.14291   0.18584   0.00000  Uiso   1.00
C139   C     0.32716   0.19300   0.61613   0.00000  Uiso   1.00
C140   C     0.41812   0.23976   0.59195   0.00000  Uiso   1.00
C141   C     0.44433   0.36678   0.58526   0.00000  Uiso   1.00
C142   C     0.53032   0.38971   0.56234   0.00000  Uiso   1.00
C143   C     0.66274   0.47761   0.52717   0.00000  Uiso   1.00
C144   C     0.23000   0.10698   0.60060   0.00000  Uiso   1.00
C145   C     0.09805   0.12236   0.60118   0.00000  Uiso   1.00
C146   C     0.02567   0.03350   0.58555   0.00000  Uiso   1.00
C147   C     0.86604   0.91522   0.56382   0.00000  Uiso   1.00
C148   C     0.40605   0.10536   0.63610   0.00000  Uiso   1.00
C149   C     0.42209   0.11935   0.66654   0.00000  Uiso   1.00
C150   C     0.49792   0.02910   0.68080   0.00000  Uiso   1.00
C151   C     0.61163   0.90830   0.71420   0.00000  Uiso   1.00
C152   C     0.43326   0.00783   0.58734   0.00000  Uiso   1.00
C153   C     0.47575   0.13918   0.57631   0.00000  Uiso   1.00
C154   C     0.56172   0.16192   0.55340   0.00000  Uiso   1.00
C155   C     0.58806   0.28895   0.54668   0.00000  Uiso   1.00
C156   C     0.28763   0.00641   0.58496   0.00000  Uiso   1.00
C157   C     0.21544   0.91750   0.56933   0.00000  Uiso   1.00
C158   C     0.08341   0.93275   0.56989   0.00000  Uiso   1.00
C159   C     0.46369   0.00478   0.62047   0.00000  Uiso   1.00
C160   C     0.53949   0.91449   0.63469   0.00000  Uiso   1.00
C161   C     0.55565   0.92834   0.66514   0.00000  Uiso   1.00
H162   H     0.28229   0.27129   0.62830   0.00000  Uiso   1.00
H163   H     0.39970   0.44459   0.59736   0.00000  Uiso   1.00
H164   H     0.05348   0.20020   0.61329   0.00000  Uiso   1.00
H165   H     0.37748   0.19719   0.67863   0.00000  Uiso   1.00
H166   H     0.55526   0.59236   0.55616   0.00000  Uiso   1.00
H167   H     0.82522   0.07703   0.58974   0.00000  Uiso   1.00
H168   H     0.50844   0.07068   0.72754   0.00000  Uiso   1.00
H169   H     0.47813   0.92953   0.57516   0.00000  Uiso   1.00
H170   H     0.60631   0.08407   0.54131   0.00000  Uiso   1.00
H171   H     0.26007   0.83968   0.55723   0.00000  Uiso   1.00
H172   H     0.58407   0.83667   0.62258   0.00000  Uiso   1.00
H173   H     0.72294   0.29975   0.51066   0.00000  Uiso   1.00
H174   H     0.99289   0.78442   0.54425   0.00000  Uiso   1.00
H175   H     0.67612   0.77807   0.68204   0.00000  Uiso   1.00
O176   O     0.71985   0.55388   0.51209   0.00000  Uiso   1.00
O177   O     0.76206   0.87778   0.55616   0.00000  Uiso   1.00
O178   O     0.65844   0.86946   0.73694   0.00000  Uiso   1.00
N179   N     0.57716   0.50229   0.55010   0.00000  Uiso   1.00
N180   N     0.89461   0.02049   0.58150   0.00000  Uiso   1.00
N181   N     0.53334   0.01454   0.71033   0.00000  Uiso   1.00
N182   N     0.66739   0.34483   0.52562   0.00000  Uiso   1.00
N183   N     0.98483   0.86304   0.55701   0.00000  Uiso   1.00
N184   N     0.62357   0.85709   0.68584   0.00000  Uiso   1.00
C185   C     0.19300   0.32716   0.13387   0.00000  Uiso   1.00
C186   C     0.23976   0.41812   0.15805   0.00000  Uiso   1.00
C187   C     0.36678   0.44433   0.16474   0.00000  Uiso   1.00
C188   C     0.38971   0.53032   0.18766   0.00000  Uiso   1.00
C189   C     0.47761   0.66274   0.22283   0.00000  Uiso   1.00
C190   C     0.10698   0.23000   0.14940   0.00000  Uiso   1.00
C191   C     0.12236   0.09805   0.14882   0.00000  Uiso   1.00
C192   C     0.03350   0.02567   0.16445   0.00000  Uiso   1.00
C193   C     0.91522   0.86604   0.18618   0.00000  Uiso   1.00
C194   C     0.10536   0.40605   0.11390   0.00000  Uiso   1.00
C195   C     0.11935   0.42209   0.08346   0.00000  Uiso   1.00
C196   C     0.02910   0.49792   0.06920   0.00000  Uiso   1.00
C197   C     0.90830   0.61163   0.03580   0.00000  Uiso   1.00
C198   C     0.00783   0.43326   0.16266   0.00000  Uiso   1.00
C199   C     0.13918   0.47575   0.17369   0.00000  Uiso   1.00
C200   C     0.16192   0.56172   0.19660   0.00000  Uiso   1.00
C201   C     0.28895   0.58806   0.20332   0.00000  Uiso   1.00
C202   C     0.00641   0.28763   0.16504   0.00000  Uiso   1.00
C203   C     0.91750   0.21544   0.18067   0.00000  Uiso   1.00
C204   C     0.93275   0.08341   0.18011   0.00000  Uiso   1.00
C205   C     0.00478   0.46369   0.12953   0.00000  Uiso   1.00
C206   C     0.91449   0.53949   0.11531   0.00000  Uiso   1.00
C207   C     0.92834   0.55565   0.08486   0.00000  Uiso   1.00
H208   H     0.27129   0.28229   0.12170   0.00000  Uiso   1.00
H209   H     0.44459   0.39970   0.15264   0.00000  Uiso   1.00
H210   H     0.20020   0.05348   0.13671   0.00000  Uiso   1.00
H211   H     0.19719   0.37748   0.07137   0.00000  Uiso   1.00
H212   H     0.59236   0.55526   0.19384   0.00000  Uiso   1.00
H213   H     0.07703   0.82522   0.16026   0.00000  Uiso   1.00
H214   H     0.07068   0.50844   0.02246   0.00000  Uiso   1.00
H215   H     0.92953   0.47813   0.17484   0.00000  Uiso   1.00
H216   H     0.08407   0.60631   0.20869   0.00000  Uiso   1.00
H217   H     0.83968   0.26007   0.19277   0.00000  Uiso   1.00
H218   H     0.83667   0.58407   0.12742   0.00000  Uiso   1.00
H219   H     0.29975   0.72294   0.23934   0.00000  Uiso   1.00
H220   H     0.78442   0.99289   0.20575   0.00000  Uiso   1.00
H221   H     0.77807   0.67612   0.06796   0.00000  Uiso   1.00
O222   O     0.55388   0.71985   0.23791   0.00000  Uiso   1.00
O223   O     0.87778   0.76206   0.19384   0.00000  Uiso   1.00
O224   O     0.86946   0.65844   0.01306   0.00000  Uiso   1.00
N225   N     0.50229   0.57716   0.19990   0.00000  Uiso   1.00
N226   N     0.02049   0.89461   0.16850   0.00000  Uiso   1.00
N227   N     0.01454   0.53334   0.03967   0.00000  Uiso   1.00
N228   N     0.34483   0.66739   0.22438   0.00000  Uiso   1.00
N229   N     0.86304   0.98483   0.19299   0.00000  Uiso   1.00
N230   N     0.85709   0.62357   0.06416   0.00000  Uiso   1.00
C231   C     0.80700   0.67284   0.63387   0.00000  Uiso   1.00
C232   C     0.76024   0.58188   0.65805   0.00000  Uiso   1.00
C233   C     0.63322   0.55567   0.66474   0.00000  Uiso   1.00
C234   C     0.61029   0.46968   0.68766   0.00000  Uiso   1.00
C235   C     0.52239   0.33726   0.72283   0.00000  Uiso   1.00
C236   C     0.89302   0.77000   0.64940   0.00000  Uiso   1.00
C237   C     0.87764   0.90195   0.64882   0.00000  Uiso   1.00
C238   C     0.96650   0.97433   0.66445   0.00000  Uiso   1.00
C239   C     0.08478   0.13396   0.68618   0.00000  Uiso   1.00
C240   C     0.89464   0.59395   0.61390   0.00000  Uiso   1.00
C241   C     0.88065   0.57791   0.58346   0.00000  Uiso   1.00
C242   C     0.97090   0.50208   0.56920   0.00000  Uiso   1.00
C243   C     0.09170   0.38837   0.53580   0.00000  Uiso   1.00
C244   C     0.99217   0.56674   0.66266   0.00000  Uiso   1.00
C245   C     0.86082   0.52425   0.67369   0.00000  Uiso   1.00
C246   C     0.83808   0.43828   0.69660   0.00000  Uiso   1.00
C247   C     0.71105   0.41194   0.70332   0.00000  Uiso   1.00
C248   C     0.99359   0.71237   0.66504   0.00000  Uiso   1.00
C249   C     0.08250   0.78456   0.68067   0.00000  Uiso   1.00
C250   C     0.06725   0.91659   0.68011   0.00000  Uiso   1.00
C251   C     0.99522   0.53631   0.62953   0.00000  Uiso   1.00
C252   C     0.08551   0.46051   0.61531   0.00000  Uiso   1.00
C253   C     0.07166   0.44435   0.58486   0.00000  Uiso   1.00
H254   H     0.72871   0.71771   0.62170   0.00000  Uiso   1.00
H255   H     0.55541   0.60030   0.65264   0.00000  Uiso   1.00
H256   H     0.79980   0.94652   0.63671   0.00000  Uiso   1.00
H257   H     0.80281   0.62252   0.57137   0.00000  Uiso   1.00
H258   H     0.40764   0.44474   0.69384   0.00000  Uiso   1.00
H259   H     0.92297   0.17478   0.66026   0.00000  Uiso   1.00
H260   H     0.92932   0.49156   0.52246   0.00000  Uiso   1.00
H261   H     0.07047   0.52187   0.67484   0.00000  Uiso   1.00
H262   H     0.91593   0.39369   0.70869   0.00000  Uiso   1.00
H263   H     0.16032   0.73993   0.69277   0.00000  Uiso   1.00
H264   H     0.16333   0.41593   0.62742   0.00000  Uiso   1.00
H265   H     0.70025   0.27706   0.73934   0.00000  Uiso   1.00
H266   H     0.21558   0.00711   0.70575   0.00000  Uiso   1.00
H267   H     0.22193   0.32388   0.56796   0.00000  Uiso   1.00
O268   O     0.44612   0.28015   0.73791   0.00000  Uiso   1.00
O269   O     0.12222   0.23794   0.69384   0.00000  Uiso   1.00
O270   O     0.13054   0.34156   0.51306   0.00000  Uiso   1.00
N271   N     0.49771   0.42284   0.69990   0.00000  Uiso   1.00
N272   N     0.97951   0.10539   0.66850   0.00000  Uiso   1.00
N273   N     0.98546   0.46666   0.53967   0.00000  Uiso   1.00
N274   N     0.65517   0.33261   0.72438   0.00000  Uiso   1.00
N275   N     0.13696   0.01517   0.69299   0.00000  Uiso   1.00
N276   N     0.14291   0.37643   0.56416   0.00000  Uiso   1.00
C277   C     0.32716   0.80700   0.88387   0.00000  Uiso   1.00
C278   C     0.41812   0.76024   0.90805   0.00000  Uiso   1.00
C279   C     0.44433   0.63322   0.91474   0.00000  Uiso   1.00
C280   C     0.53032   0.61029   0.93766   0.00000  Uiso   1.00
C281   C     0.66274   0.52239   0.97283   0.00000  Uiso   1.00
C282   C     0.23000   0.89302   0.89940   0.00000  Uiso   1.00
C283   C     0.09805   0.87764   0.89882   0.00000  Uiso   1.00
C284   C     0.02567   0.96650   0.91445   0.00000  Uiso   1.00
C285   C     0.86604   0.08478   0.93618   0.00000  Uiso   1.00
C286   C     0.40605   0.89464   0.86390   0.00000  Uiso   1.00
C287   C     0.42209   0.88065   0.83346   0.00000  Uiso   1.00
C288   C     0.49792   0.97090   0.81920   0.00000  Uiso   1.00
C289   C     0.61163   0.09170   0.78580   0.00000  Uiso   1.00
C290   C     0.43326   0.99217   0.91266   0.00000  Uiso   1.00
C291   C     0.47575   0.86082   0.92369   0.00000  Uiso   1.00
C292   C     0.56172   0.83808   0.94660   0.00000  Uiso   1.00
C293   C     0.58806   0.71105   0.95332   0.00000  Uiso   1.00
C294   C     0.28763   0.99359   0.91504   0.00000  Uiso   1.00
C295   C     0.21544   0.08250   0.93067   0.00000  Uiso   1.00
C296   C     0.08341   0.06725   0.93011   0.00000  Uiso   1.00
C297   C     0.46369   0.99522   0.87953   0.00000  Uiso   1.00
C298   C     0.53949   0.08551   0.86531   0.00000  Uiso   1.00
C299   C     0.55565   0.07166   0.83486   0.00000  Uiso   1.00
H300   H     0.28229   0.72871   0.87170   0.00000  Uiso   1.00
H301   H     0.39970   0.55541   0.90264   0.00000  Uiso   1.00
H302   H     0.05348   0.79980   0.88671   0.00000  Uiso   1.00
H303   H     0.37748   0.80281   0.82137   0.00000  Uiso   1.00
H304   H     0.55526   0.40764   0.94384   0.00000  Uiso   1.00
H305   H     0.82522   0.92297   0.91026   0.00000  Uiso   1.00
H306   H     0.50844   0.92932   0.77246   0.00000  Uiso   1.00
H307   H     0.47813   0.07047   0.92484   0.00000  Uiso   1.00
H308   H     0.60631   0.91593   0.95869   0.00000  Uiso   1.00
H309   H     0.26007   0.16032   0.94277   0.00000  Uiso   1.00
H310   H     0.58407   0.16333   0.87742   0.00000  Uiso   1.00
H311   H     0.72294   0.70025   0.98934   0.00000  Uiso   1.00
H312   H     0.99289   0.21558   0.95575   0.00000  Uiso   1.00
H313   H     0.67612   0.22193   0.81796   0.00000  Uiso   1.00
O314   O     0.71985   0.44612   0.98791   0.00000  Uiso   1.00
O315   O     0.76206   0.12222   0.94384   0.00000  Uiso   1.00
O316   O     0.65844   0.13054   0.76306   0.00000  Uiso   1.00
N317   N     0.57716   0.49771   0.94990   0.00000  Uiso   1.00
N318   N     0.89461   0.97951   0.91850   0.00000  Uiso   1.00
N319   N     0.53334   0.98546   0.78967   0.00000  Uiso   1.00
N320   N     0.66739   0.65517   0.97438   0.00000  Uiso   1.00
N321   N     0.98483   0.13696   0.94299   0.00000  Uiso   1.00
N322   N     0.62357   0.14291   0.81416   0.00000  Uiso   1.00
C323   C     0.67284   0.19300   0.38387   0.00000  Uiso   1.00
C324   C     0.58188   0.23976   0.40805   0.00000  Uiso   1.00
C325   C     0.55567   0.36678   0.41474   0.00000  Uiso   1.00
C326   C     0.46968   0.38971   0.43766   0.00000  Uiso   1.00
C327   C     0.33726   0.47761   0.47283   0.00000  Uiso   1.00
C328   C     0.77000   0.10698   0.39940   0.00000  Uiso   1.00
C329   C     0.90195   0.12236   0.39882   0.00000  Uiso   1.00
C330   C     0.97433   0.03350   0.41445   0.00000  Uiso   1.00
C331   C     0.13396   0.91522   0.43618   0.00000  Uiso   1.00
C332   C     0.59395   0.10536   0.36390   0.00000  Uiso   1.00
C333   C     0.57791   0.11935   0.33346   0.00000  Uiso   1.00
C334   C     0.50208   0.02910   0.31920   0.00000  Uiso   1.00
C335   C     0.38837   0.90830   0.28580   0.00000  Uiso   1.00
C336   C     0.56674   0.00783   0.41266   0.00000  Uiso   1.00
C337   C     0.52425   0.13918   0.42369   0.00000  Uiso   1.00
C338   C     0.43828   0.16192   0.44660   0.00000  Uiso   1.00
C339   C     0.41194   0.28895   0.45332   0.00000  Uiso   1.00
C340   C     0.71237   0.00641   0.41504   0.00000  Uiso   1.00
C341   C     0.78456   0.91750   0.43067   0.00000  Uiso   1.00
C342   C     0.91659   0.93275   0.43011   0.00000  Uiso   1.00
C343   C     0.53631   0.00478   0.37953   0.00000  Uiso   1.00
C344   C     0.46051   0.91449   0.36531   0.00000  Uiso   1.00
C345   C     0.44435   0.92834   0.33486   0.00000  Uiso   1.00
H346   H     0.71771   0.27129   0.37170   0.00000  Uiso   1.00
H347   H     0.60030   0.44459   0.40264   0.00000  Uiso   1.00
H348   H     0.94652   0.20020   0.38671   0.00000  Uiso   1.00
H349   H     0.62252   0.19719   0.32137   0.00000  Uiso   1.00
H350   H     0.44474   0.59236   0.44384   0.00000  Uiso   1.00
H351   H     0.17478   0.07703   0.41026   0.00000  Uiso   1.00
H352   H     0.49156   0.07068   0.27246   0.00000  Uiso   1.00
H353   H     0.52187   0.92953   0.42484   0.00000  Uiso   1.00
H354   H     0.39369   0.08407   0.45869   0.00000  Uiso   1.00
H355   H     0.73993   0.83968   0.44277   0.00000  Uiso   1.00
H356   H     0.41593   0.83667   0.37742   0.00000  Uiso   1.00
H357   H     0.27706   0.29975   0.48934   0.00000  Uiso   1.00
H358   H     0.00711   0.78442   0.45575   0.00000  Uiso   1.00
H359   H     0.32388   0.77807   0.31796   0.00000  Uiso   1.00
O360   O     0.28015   0.55388   0.48791   0.00000  Uiso   1.00
O361   O     0.23794   0.87778   0.44384   0.00000  Uiso   1.00
O362   O     0.34156   0.86946   0.26306   0.00000  Uiso   1.00
N363   N     0.42284   0.50229   0.44990   0.00000  Uiso   1.00
N364   N     0.10539   0.02049   0.41850   0.00000  Uiso   1.00
N365   N     0.46666   0.01454   0.28967   0.00000  Uiso   1.00
N366   N     0.33261   0.34483   0.47438   0.00000  Uiso   1.00
N367   N     0.01517   0.86304   0.44299   0.00000  Uiso   1.00
N368   N     0.37643   0.85709   0.31416   0.00000  Uiso   1.00
