data_job_02844
_audit_creation_date              2018-12-19
_audit_creation_method            'Materials Studio'
_symmetry_space_group_name_H-M    'P1'
_symmetry_Int_Tables_number       1
_symmetry_cell_setting            triclinic
loop_
_symmetry_equiv_pos_as_xyz
  x,y,z
_cell_length_a                    9.6316
_cell_length_b                    16.6079
_cell_length_c                    19.9313
_cell_angle_alpha                 90.0000
_cell_angle_beta                  90.8076
_cell_angle_gamma                 90.0000
loop_
_atom_site_label
_atom_site_type_symbol
_atom_site_fract_x
_atom_site_fract_y
_atom_site_fract_z
_atom_site_U_iso_or_equiv
_atom_site_adp_type
_atom_site_occupancy
C1     C     0.10116   0.96563   0.67846   0.00000  Uiso   1.00
C2     C     0.17388   0.02260   0.63032   0.00000  Uiso   1.00
C3     C     0.11181   0.08590   0.59574   0.00000  Uiso   1.00
C4     C     0.19612   0.13097   0.55410   0.00000  Uiso   1.00
C5     C     0.28754   0.22209   0.48035   0.00000  Uiso   1.00
C6     C     0.12631   0.88091   0.65175   0.00000  Uiso   1.00
C7     C     0.02424   0.82507   0.63519   0.00000  Uiso   1.00
C8     C     0.06852   0.75086   0.61160   0.00000  Uiso   1.00
C9     C     0.08609   0.62199   0.57117   0.00000  Uiso   1.00
C10    C     0.18153   0.97109   0.74476   0.00000  Uiso   1.00
C11    C     0.12589   0.99105   0.80643   0.00000  Uiso   1.00
C12    C     0.21666   0.99274   0.86115   0.00000  Uiso   1.00
C13    C     0.31997   0.00388   0.96514   0.00000  Uiso   1.00
C14    C     0.36128   0.93311   0.66600   0.00000  Uiso   1.00
C15    C     0.31517   0.00494   0.62355   0.00000  Uiso   1.00
C16    C     0.39960   0.04992   0.58196   0.00000  Uiso   1.00
C17    C     0.33767   0.11328   0.54732   0.00000  Uiso   1.00
C18    C     0.26759   0.86325   0.64498   0.00000  Uiso   1.00
C19    C     0.31203   0.78910   0.62141   0.00000  Uiso   1.00
C20    C     0.21006   0.73317   0.60482   0.00000  Uiso   1.00
C21    C     0.32282   0.95343   0.73800   0.00000  Uiso   1.00
C22    C     0.41369   0.95508   0.79264   0.00000  Uiso   1.00
C23    C     0.35820   0.97504   0.85437   0.00000  Uiso   1.00
H24    H     0.99116   0.97937   0.68372   0.00000  Uiso   1.00
H25    H     0.00246   0.09954   0.60098   0.00000  Uiso   1.00
H26    H     0.91492   0.83875   0.64044   0.00000  Uiso   1.00
H27    H     0.01656   0.00471   0.81164   0.00000  Uiso   1.00
H28    H     0.07729   0.22496   0.50625   0.00000  Uiso   1.00
H29    H     0.89270   0.67507   0.58946   0.00000  Uiso   1.00
H30    H     0.10702   0.02501   0.95048   0.00000  Uiso   1.00
H31    H     0.47128   0.91936   0.66073   0.00000  Uiso   1.00
H32    H     0.50893   0.03624   0.57673   0.00000  Uiso   1.00
H33    H     0.42138   0.77545   0.61618   0.00000  Uiso   1.00
H34    H     0.52302   0.94141   0.78738   0.00000  Uiso   1.00
H35    H     0.48836   0.17359   0.48656   0.00000  Uiso   1.00
H36    H     0.30376   0.62369   0.56978   0.00000  Uiso   1.00
H37    H     0.51808   0.97364   0.93079   0.00000  Uiso   1.00
O38    O     0.29892   0.27723   0.44154   0.00000  Uiso   1.00
O39    O     0.05674   0.55579   0.55073   0.00000  Uiso   1.00
O40    O     0.33792   0.01491   0.02437   0.00000  Uiso   1.00
N41    N     0.16888   0.19684   0.51315   0.00000  Uiso   1.00
N42    N     0.99629   0.68273   0.59094   0.00000  Uiso   1.00
N43    N     0.19665   0.00988   0.92847   0.00000  Uiso   1.00
N44    N     0.39007   0.16920   0.50256   0.00000  Uiso   1.00
N45    N     0.21748   0.65508   0.58035   0.00000  Uiso   1.00
N46    N     0.41784   0.98223   0.91787   0.00000  Uiso   1.00
C47    C     0.89884   0.46563   0.82154   0.00000  Uiso   1.00
C48    C     0.82612   0.52260   0.86968   0.00000  Uiso   1.00
C49    C     0.88819   0.58590   0.90426   0.00000  Uiso   1.00
C50    C     0.80388   0.63097   0.94590   0.00000  Uiso   1.00
C51    C     0.71246   0.72209   0.01965   0.00000  Uiso   1.00
C52    C     0.87369   0.38091   0.84825   0.00000  Uiso   1.00
C53    C     0.97576   0.32507   0.86481   0.00000  Uiso   1.00
C54    C     0.93148   0.25086   0.88840   0.00000  Uiso   1.00
C55    C     0.91391   0.12199   0.92883   0.00000  Uiso   1.00
C56    C     0.81847   0.47109   0.75524   0.00000  Uiso   1.00
C57    C     0.87411   0.49105   0.69357   0.00000  Uiso   1.00
C58    C     0.78334   0.49274   0.63885   0.00000  Uiso   1.00
C59    C     0.68003   0.50388   0.53486   0.00000  Uiso   1.00
C60    C     0.63872   0.43311   0.83400   0.00000  Uiso   1.00
C61    C     0.68483   0.50494   0.87645   0.00000  Uiso   1.00
C62    C     0.60040   0.54992   0.91804   0.00000  Uiso   1.00
C63    C     0.66233   0.61328   0.95268   0.00000  Uiso   1.00
C64    C     0.73241   0.36325   0.85502   0.00000  Uiso   1.00
C65    C     0.68797   0.28910   0.87859   0.00000  Uiso   1.00
C66    C     0.78994   0.23317   0.89518   0.00000  Uiso   1.00
C67    C     0.67718   0.45343   0.76200   0.00000  Uiso   1.00
C68    C     0.58631   0.45508   0.70736   0.00000  Uiso   1.00
C69    C     0.64180   0.47504   0.64563   0.00000  Uiso   1.00
H70    H     0.00884   0.47937   0.81628   0.00000  Uiso   1.00
H71    H     0.99754   0.59954   0.89902   0.00000  Uiso   1.00
H72    H     0.08508   0.33875   0.85956   0.00000  Uiso   1.00
H73    H     0.98344   0.50471   0.68836   0.00000  Uiso   1.00
H74    H     0.92271   0.72496   0.99375   0.00000  Uiso   1.00
H75    H     0.10730   0.17507   0.91054   0.00000  Uiso   1.00
H76    H     0.89298   0.52501   0.54952   0.00000  Uiso   1.00
H77    H     0.52872   0.41936   0.83927   0.00000  Uiso   1.00
H78    H     0.49107   0.53624   0.92327   0.00000  Uiso   1.00
H79    H     0.57862   0.27545   0.88382   0.00000  Uiso   1.00
H80    H     0.47698   0.44141   0.71262   0.00000  Uiso   1.00
H81    H     0.51164   0.67359   0.01344   0.00000  Uiso   1.00
H82    H     0.69624   0.12369   0.93022   0.00000  Uiso   1.00
H83    H     0.48192   0.47364   0.56921   0.00000  Uiso   1.00
O84    O     0.70108   0.77723   0.05846   0.00000  Uiso   1.00
O85    O     0.94326   0.05579   0.94927   0.00000  Uiso   1.00
O86    O     0.66208   0.51491   0.47563   0.00000  Uiso   1.00
N87    N     0.83112   0.69684   0.98685   0.00000  Uiso   1.00
N88    N     0.00371   0.18273   0.90906   0.00000  Uiso   1.00
N89    N     0.80335   0.50988   0.57153   0.00000  Uiso   1.00
N90    N     0.60993   0.66920   0.99744   0.00000  Uiso   1.00
N91    N     0.78252   0.15508   0.91965   0.00000  Uiso   1.00
N92    N     0.58216   0.48223   0.58213   0.00000  Uiso   1.00
C93    C     0.89884   0.03437   0.32154   0.00000  Uiso   1.00
C94    C     0.82612   0.97740   0.36968   0.00000  Uiso   1.00
C95    C     0.88819   0.91410   0.40426   0.00000  Uiso   1.00
C96    C     0.80388   0.86903   0.44590   0.00000  Uiso   1.00
C97    C     0.71246   0.77791   0.51965   0.00000  Uiso   1.00
C98    C     0.87369   0.11909   0.34825   0.00000  Uiso   1.00
C99    C     0.97576   0.17493   0.36481   0.00000  Uiso   1.00
C100   C     0.93148   0.24914   0.38840   0.00000  Uiso   1.00
C101   C     0.91391   0.37801   0.42883   0.00000  Uiso   1.00
C102   C     0.81847   0.02891   0.25524   0.00000  Uiso   1.00
C103   C     0.87411   0.00895   0.19357   0.00000  Uiso   1.00
C104   C     0.78334   0.00726   0.13885   0.00000  Uiso   1.00
C105   C     0.68003   0.99612   0.03486   0.00000  Uiso   1.00
C106   C     0.63872   0.06689   0.33400   0.00000  Uiso   1.00
C107   C     0.68483   0.99506   0.37645   0.00000  Uiso   1.00
C108   C     0.60040   0.95008   0.41804   0.00000  Uiso   1.00
C109   C     0.66233   0.88672   0.45268   0.00000  Uiso   1.00
C110   C     0.73241   0.13675   0.35502   0.00000  Uiso   1.00
C111   C     0.68797   0.21090   0.37859   0.00000  Uiso   1.00
C112   C     0.78994   0.26683   0.39518   0.00000  Uiso   1.00
C113   C     0.67718   0.04657   0.26200   0.00000  Uiso   1.00
C114   C     0.58631   0.04492   0.20736   0.00000  Uiso   1.00
C115   C     0.64180   0.02496   0.14563   0.00000  Uiso   1.00
H116   H     0.00884   0.02063   0.31628   0.00000  Uiso   1.00
H117   H     0.99754   0.90046   0.39902   0.00000  Uiso   1.00
H118   H     0.08508   0.16125   0.35956   0.00000  Uiso   1.00
H119   H     0.98344   0.99529   0.18836   0.00000  Uiso   1.00
H120   H     0.92271   0.77504   0.49375   0.00000  Uiso   1.00
H121   H     0.10730   0.32493   0.41054   0.00000  Uiso   1.00
H122   H     0.89298   0.97499   0.04952   0.00000  Uiso   1.00
H123   H     0.52872   0.08064   0.33927   0.00000  Uiso   1.00
H124   H     0.49107   0.96376   0.42327   0.00000  Uiso   1.00
H125   H     0.57862   0.22455   0.38382   0.00000  Uiso   1.00
H126   H     0.47698   0.05859   0.21262   0.00000  Uiso   1.00
H127   H     0.51164   0.82641   0.51344   0.00000  Uiso   1.00
H128   H     0.69624   0.37631   0.43022   0.00000  Uiso   1.00
H129   H     0.48192   0.02636   0.06921   0.00000  Uiso   1.00
O130   O     0.70108   0.72277   0.55846   0.00000  Uiso   1.00
O131   O     0.94326   0.44421   0.44927   0.00000  Uiso   1.00
O132   O     0.66208   0.98509   0.97563   0.00000  Uiso   1.00
N133   N     0.83112   0.80316   0.48685   0.00000  Uiso   1.00
N134   N     0.00371   0.31727   0.40906   0.00000  Uiso   1.00
N135   N     0.80335   0.99012   0.07153   0.00000  Uiso   1.00
N136   N     0.60993   0.83080   0.49744   0.00000  Uiso   1.00
N137   N     0.78252   0.34492   0.41965   0.00000  Uiso   1.00
N138   N     0.58216   0.01777   0.08213   0.00000  Uiso   1.00
C139   C     0.10116   0.53437   0.17846   0.00000  Uiso   1.00
C140   C     0.17388   0.47740   0.13032   0.00000  Uiso   1.00
C141   C     0.11181   0.41410   0.09574   0.00000  Uiso   1.00
C142   C     0.19612   0.36903   0.05410   0.00000  Uiso   1.00
C143   C     0.28754   0.27791   0.98035   0.00000  Uiso   1.00
C144   C     0.12631   0.61909   0.15175   0.00000  Uiso   1.00
C145   C     0.02424   0.67493   0.13519   0.00000  Uiso   1.00
C146   C     0.06852   0.74914   0.11160   0.00000  Uiso   1.00
C147   C     0.08609   0.87801   0.07117   0.00000  Uiso   1.00
C148   C     0.18153   0.52891   0.24476   0.00000  Uiso   1.00
C149   C     0.12589   0.50895   0.30643   0.00000  Uiso   1.00
C150   C     0.21666   0.50726   0.36115   0.00000  Uiso   1.00
C151   C     0.31997   0.49612   0.46514   0.00000  Uiso   1.00
C152   C     0.36128   0.56689   0.16600   0.00000  Uiso   1.00
C153   C     0.31517   0.49506   0.12355   0.00000  Uiso   1.00
C154   C     0.39960   0.45008   0.08196   0.00000  Uiso   1.00
C155   C     0.33767   0.38672   0.04732   0.00000  Uiso   1.00
C156   C     0.26759   0.63675   0.14498   0.00000  Uiso   1.00
C157   C     0.31203   0.71090   0.12141   0.00000  Uiso   1.00
C158   C     0.21006   0.76683   0.10482   0.00000  Uiso   1.00
C159   C     0.32282   0.54657   0.23800   0.00000  Uiso   1.00
C160   C     0.41369   0.54492   0.29264   0.00000  Uiso   1.00
C161   C     0.35820   0.52496   0.35437   0.00000  Uiso   1.00
H162   H     0.99116   0.52063   0.18372   0.00000  Uiso   1.00
H163   H     0.00246   0.40046   0.10098   0.00000  Uiso   1.00
H164   H     0.91492   0.66125   0.14044   0.00000  Uiso   1.00
H165   H     0.01656   0.49529   0.31164   0.00000  Uiso   1.00
H166   H     0.07729   0.27504   0.00625   0.00000  Uiso   1.00
H167   H     0.89270   0.82493   0.08946   0.00000  Uiso   1.00
H168   H     0.10702   0.47499   0.45048   0.00000  Uiso   1.00
H169   H     0.47128   0.58064   0.16073   0.00000  Uiso   1.00
H170   H     0.50893   0.46376   0.07673   0.00000  Uiso   1.00
H171   H     0.42138   0.72455   0.11618   0.00000  Uiso   1.00
H172   H     0.52302   0.55859   0.28738   0.00000  Uiso   1.00
H173   H     0.48836   0.32641   0.98656   0.00000  Uiso   1.00
H174   H     0.30376   0.87631   0.06978   0.00000  Uiso   1.00
H175   H     0.51808   0.52636   0.43079   0.00000  Uiso   1.00
O176   O     0.29892   0.22277   0.94154   0.00000  Uiso   1.00
O177   O     0.05674   0.94421   0.05073   0.00000  Uiso   1.00
O178   O     0.33792   0.48509   0.52437   0.00000  Uiso   1.00
N179   N     0.16888   0.30316   0.01315   0.00000  Uiso   1.00
N180   N     0.99629   0.81727   0.09094   0.00000  Uiso   1.00
N181   N     0.19665   0.49012   0.42847   0.00000  Uiso   1.00
N182   N     0.39007   0.33080   0.00256   0.00000  Uiso   1.00
N183   N     0.21748   0.84492   0.08035   0.00000  Uiso   1.00
N184   N     0.41784   0.51777   0.41787   0.00000  Uiso   1.00
