data_job_02491
_audit_creation_date              2018-12-19
_audit_creation_method            'Materials Studio'
_symmetry_space_group_name_H-M    'P1'
_symmetry_Int_Tables_number       1
_symmetry_cell_setting            triclinic
loop_
_symmetry_equiv_pos_as_xyz
  x,y,z
_cell_length_a                    6.9421
_cell_length_b                    24.0399
_cell_length_c                    41.2721
_cell_angle_alpha                 90.0000
_cell_angle_beta                  99.7015
_cell_angle_gamma                 90.0000
loop_
_atom_site_label
_atom_site_type_symbol
_atom_site_fract_x
_atom_site_fract_y
_atom_site_fract_z
_atom_site_U_iso_or_equiv
_atom_site_adp_type
_atom_site_occupancy
C1     C     0.40515   0.26549   0.58296   0.00000  Uiso   1.00
C2     C     0.51978   0.30692   0.56568   0.00000  Uiso   1.00
C3     C     0.44773   0.35644   0.55115   0.00000  Uiso   1.00
C4     C     0.57582   0.38858   0.53660   0.00000  Uiso   1.00
C5     C     0.72446   0.45549   0.50978   0.00000  Uiso   1.00
C6     C     0.52096   0.25841   0.61754   0.00000  Uiso   1.00
C7     C     0.44989   0.26714   0.64661   0.00000  Uiso   1.00
C8     C     0.57897   0.25843   0.67573   0.00000  Uiso   1.00
C9     C     0.72939   0.25000   0.72942   0.00000  Uiso   1.00
C10    C     0.41841   0.20990   0.56568   0.00000  Uiso   1.00
C11    C     0.26111   0.17781   0.55115   0.00000  Uiso   1.00
C12    C     0.30386   0.12825   0.53661   0.00000  Uiso   1.00
C13    C     0.29505   0.04448   0.50978   0.00000  Uiso   1.00
C14    C     0.76074   0.23451   0.58298   0.00000  Uiso   1.00
C15    C     0.71293   0.29009   0.56570   0.00000  Uiso   1.00
C16    C     0.84116   0.32216   0.55117   0.00000  Uiso   1.00
C17    C     0.76931   0.37172   0.53661   0.00000  Uiso   1.00
C18    C     0.71410   0.24159   0.61756   0.00000  Uiso   1.00
C19    C     0.84331   0.23286   0.64663   0.00000  Uiso   1.00
C20    C     0.77246   0.24158   0.67574   0.00000  Uiso   1.00
C21    C     0.61155   0.19307   0.56569   0.00000  Uiso   1.00
C22    C     0.65454   0.14354   0.55117   0.00000  Uiso   1.00
C23    C     0.49735   0.11140   0.53662   0.00000  Uiso   1.00
H24    H     0.25479   0.27859   0.58296   0.00000  Uiso   1.00
H25    H     0.29826   0.36945   0.55115   0.00000  Uiso   1.00
H26    H     0.30041   0.28015   0.64659   0.00000  Uiso   1.00
H27    H     0.11167   0.19085   0.55115   0.00000  Uiso   1.00
H28    H     0.43165   0.46278   0.51589   0.00000  Uiso   1.00
H29    H     0.43617   0.27448   0.71715   0.00000  Uiso   1.00
H30    H     0.03817   0.08616   0.51588   0.00000  Uiso   1.00
H31    H     0.91112   0.22140   0.58299   0.00000  Uiso   1.00
H32    H     0.99061   0.30913   0.55118   0.00000  Uiso   1.00
H33    H     0.99276   0.21984   0.64663   0.00000  Uiso   1.00
H34    H     0.80402   0.13053   0.55119   0.00000  Uiso   1.00
H35    H     0.99360   0.41382   0.51593   0.00000  Uiso   1.00
H36    H     0.99810   0.22552   0.71719   0.00000  Uiso   1.00
H37    H     0.60012   0.03720   0.51592   0.00000  Uiso   1.00
O38    O     0.75309   0.49705   0.49499   0.00000  Uiso   1.00
O39    O     0.75900   0.25000   0.75904   0.00000  Uiso   1.00
O40    O     0.23684   0.00293   0.49498   0.00000  Uiso   1.00
N41    N     0.55299   0.43921   0.52026   0.00000  Uiso   1.00
N42    N     0.55721   0.26317   0.70843   0.00000  Uiso   1.00
N43    N     0.18512   0.08710   0.52026   0.00000  Uiso   1.00
N44    N     0.85536   0.41287   0.52028   0.00000  Uiso   1.00
N45    N     0.85959   0.23683   0.70844   0.00000  Uiso   1.00
N46    N     0.48750   0.06076   0.52028   0.00000  Uiso   1.00
C47    C     0.59485   0.26549   0.91704   0.00000  Uiso   1.00
C48    C     0.48022   0.30692   0.93432   0.00000  Uiso   1.00
C49    C     0.55227   0.35644   0.94885   0.00000  Uiso   1.00
C50    C     0.42418   0.38858   0.96340   0.00000  Uiso   1.00
C51    C     0.27554   0.45549   0.99022   0.00000  Uiso   1.00
C52    C     0.47904   0.25841   0.88246   0.00000  Uiso   1.00
C53    C     0.55011   0.26714   0.85339   0.00000  Uiso   1.00
C54    C     0.42103   0.25843   0.82427   0.00000  Uiso   1.00
C55    C     0.27061   0.25000   0.77058   0.00000  Uiso   1.00
C56    C     0.58159   0.20990   0.93432   0.00000  Uiso   1.00
C57    C     0.73889   0.17781   0.94885   0.00000  Uiso   1.00
C58    C     0.69614   0.12825   0.96339   0.00000  Uiso   1.00
C59    C     0.70495   0.04448   0.99022   0.00000  Uiso   1.00
C60    C     0.23926   0.23451   0.91702   0.00000  Uiso   1.00
C61    C     0.28707   0.29009   0.93430   0.00000  Uiso   1.00
C62    C     0.15884   0.32216   0.94883   0.00000  Uiso   1.00
C63    C     0.23069   0.37172   0.96339   0.00000  Uiso   1.00
C64    C     0.28590   0.24159   0.88244   0.00000  Uiso   1.00
C65    C     0.15669   0.23286   0.85337   0.00000  Uiso   1.00
C66    C     0.22754   0.24158   0.82426   0.00000  Uiso   1.00
C67    C     0.38845   0.19307   0.93431   0.00000  Uiso   1.00
C68    C     0.34546   0.14354   0.94883   0.00000  Uiso   1.00
C69    C     0.50265   0.11140   0.96338   0.00000  Uiso   1.00
H70    H     0.74521   0.27859   0.91704   0.00000  Uiso   1.00
H71    H     0.70174   0.36945   0.94885   0.00000  Uiso   1.00
H72    H     0.69959   0.28015   0.85341   0.00000  Uiso   1.00
H73    H     0.88833   0.19085   0.94885   0.00000  Uiso   1.00
H74    H     0.56835   0.46278   0.98411   0.00000  Uiso   1.00
H75    H     0.56383   0.27448   0.78285   0.00000  Uiso   1.00
H76    H     0.96183   0.08616   0.98412   0.00000  Uiso   1.00
H77    H     0.08888   0.22140   0.91701   0.00000  Uiso   1.00
H78    H     0.00939   0.30913   0.94882   0.00000  Uiso   1.00
H79    H     0.00724   0.21984   0.85337   0.00000  Uiso   1.00
H80    H     0.19598   0.13053   0.94881   0.00000  Uiso   1.00
H81    H     0.00640   0.41382   0.98407   0.00000  Uiso   1.00
H82    H     0.00190   0.22552   0.78281   0.00000  Uiso   1.00
H83    H     0.39988   0.03720   0.98408   0.00000  Uiso   1.00
O84    O     0.24691   0.49705   0.00501   0.00000  Uiso   1.00
O85    O     0.24100   0.25000   0.74096   0.00000  Uiso   1.00
O86    O     0.76316   0.00293   0.00502   0.00000  Uiso   1.00
N87    N     0.44701   0.43921   0.97974   0.00000  Uiso   1.00
N88    N     0.44279   0.26317   0.79157   0.00000  Uiso   1.00
N89    N     0.81488   0.08710   0.97974   0.00000  Uiso   1.00
N90    N     0.14464   0.41287   0.97972   0.00000  Uiso   1.00
N91    N     0.14041   0.23683   0.79156   0.00000  Uiso   1.00
N92    N     0.51250   0.06076   0.97972   0.00000  Uiso   1.00
C93    C     0.59485   0.73451   0.41704   0.00000  Uiso   1.00
C94    C     0.48022   0.69308   0.43432   0.00000  Uiso   1.00
C95    C     0.55227   0.64356   0.44885   0.00000  Uiso   1.00
C96    C     0.42418   0.61142   0.46340   0.00000  Uiso   1.00
C97    C     0.27554   0.54451   0.49022   0.00000  Uiso   1.00
C98    C     0.47904   0.74159   0.38246   0.00000  Uiso   1.00
C99    C     0.55011   0.73286   0.35339   0.00000  Uiso   1.00
C100   C     0.42103   0.74157   0.32427   0.00000  Uiso   1.00
C101   C     0.27061   0.75000   0.27058   0.00000  Uiso   1.00
C102   C     0.58159   0.79010   0.43432   0.00000  Uiso   1.00
C103   C     0.73889   0.82219   0.44885   0.00000  Uiso   1.00
C104   C     0.69614   0.87175   0.46339   0.00000  Uiso   1.00
C105   C     0.70495   0.95552   0.49022   0.00000  Uiso   1.00
C106   C     0.23926   0.76549   0.41702   0.00000  Uiso   1.00
C107   C     0.28707   0.70991   0.43430   0.00000  Uiso   1.00
C108   C     0.15884   0.67784   0.44883   0.00000  Uiso   1.00
C109   C     0.23069   0.62828   0.46339   0.00000  Uiso   1.00
C110   C     0.28590   0.75841   0.38244   0.00000  Uiso   1.00
C111   C     0.15669   0.76714   0.35337   0.00000  Uiso   1.00
C112   C     0.22754   0.75842   0.32426   0.00000  Uiso   1.00
C113   C     0.38845   0.80693   0.43431   0.00000  Uiso   1.00
C114   C     0.34546   0.85646   0.44883   0.00000  Uiso   1.00
C115   C     0.50265   0.88860   0.46338   0.00000  Uiso   1.00
H116   H     0.74521   0.72141   0.41704   0.00000  Uiso   1.00
H117   H     0.70174   0.63055   0.44885   0.00000  Uiso   1.00
H118   H     0.69959   0.71985   0.35341   0.00000  Uiso   1.00
H119   H     0.88833   0.80915   0.44885   0.00000  Uiso   1.00
H120   H     0.56835   0.53722   0.48411   0.00000  Uiso   1.00
H121   H     0.56383   0.72552   0.28285   0.00000  Uiso   1.00
H122   H     0.96183   0.91384   0.48412   0.00000  Uiso   1.00
H123   H     0.08888   0.77860   0.41701   0.00000  Uiso   1.00
H124   H     0.00939   0.69087   0.44882   0.00000  Uiso   1.00
H125   H     0.00724   0.78016   0.35337   0.00000  Uiso   1.00
H126   H     0.19598   0.86947   0.44881   0.00000  Uiso   1.00
H127   H     0.00640   0.58618   0.48407   0.00000  Uiso   1.00
H128   H     0.00190   0.77448   0.28281   0.00000  Uiso   1.00
H129   H     0.39988   0.96280   0.48408   0.00000  Uiso   1.00
O130   O     0.24691   0.50295   0.50501   0.00000  Uiso   1.00
O131   O     0.24100   0.75000   0.24096   0.00000  Uiso   1.00
O132   O     0.76316   0.99707   0.50502   0.00000  Uiso   1.00
N133   N     0.44701   0.56079   0.47974   0.00000  Uiso   1.00
N134   N     0.44279   0.73683   0.29157   0.00000  Uiso   1.00
N135   N     0.81488   0.91290   0.47974   0.00000  Uiso   1.00
N136   N     0.14464   0.58713   0.47972   0.00000  Uiso   1.00
N137   N     0.14041   0.76317   0.29156   0.00000  Uiso   1.00
N138   N     0.51250   0.93924   0.47972   0.00000  Uiso   1.00
C139   C     0.40515   0.73451   0.08296   0.00000  Uiso   1.00
C140   C     0.51978   0.69308   0.06568   0.00000  Uiso   1.00
C141   C     0.44773   0.64356   0.05115   0.00000  Uiso   1.00
C142   C     0.57582   0.61142   0.03660   0.00000  Uiso   1.00
C143   C     0.72446   0.54451   0.00978   0.00000  Uiso   1.00
C144   C     0.52096   0.74159   0.11754   0.00000  Uiso   1.00
C145   C     0.44989   0.73286   0.14661   0.00000  Uiso   1.00
C146   C     0.57897   0.74157   0.17573   0.00000  Uiso   1.00
C147   C     0.72939   0.75000   0.22942   0.00000  Uiso   1.00
C148   C     0.41841   0.79010   0.06568   0.00000  Uiso   1.00
C149   C     0.26111   0.82219   0.05115   0.00000  Uiso   1.00
C150   C     0.30386   0.87175   0.03661   0.00000  Uiso   1.00
C151   C     0.29505   0.95552   0.00978   0.00000  Uiso   1.00
C152   C     0.76074   0.76549   0.08298   0.00000  Uiso   1.00
C153   C     0.71293   0.70991   0.06570   0.00000  Uiso   1.00
C154   C     0.84116   0.67784   0.05117   0.00000  Uiso   1.00
C155   C     0.76931   0.62828   0.03661   0.00000  Uiso   1.00
C156   C     0.71410   0.75841   0.11756   0.00000  Uiso   1.00
C157   C     0.84331   0.76714   0.14663   0.00000  Uiso   1.00
C158   C     0.77246   0.75842   0.17574   0.00000  Uiso   1.00
C159   C     0.61155   0.80693   0.06569   0.00000  Uiso   1.00
C160   C     0.65454   0.85646   0.05117   0.00000  Uiso   1.00
C161   C     0.49735   0.88860   0.03662   0.00000  Uiso   1.00
H162   H     0.25479   0.72141   0.08296   0.00000  Uiso   1.00
H163   H     0.29826   0.63055   0.05115   0.00000  Uiso   1.00
H164   H     0.30041   0.71985   0.14659   0.00000  Uiso   1.00
H165   H     0.11167   0.80915   0.05115   0.00000  Uiso   1.00
H166   H     0.43165   0.53722   0.01589   0.00000  Uiso   1.00
H167   H     0.43617   0.72552   0.21715   0.00000  Uiso   1.00
H168   H     0.03817   0.91384   0.01588   0.00000  Uiso   1.00
H169   H     0.91112   0.77860   0.08299   0.00000  Uiso   1.00
H170   H     0.99061   0.69087   0.05118   0.00000  Uiso   1.00
H171   H     0.99276   0.78016   0.14663   0.00000  Uiso   1.00
H172   H     0.80402   0.86947   0.05119   0.00000  Uiso   1.00
H173   H     0.99360   0.58618   0.01593   0.00000  Uiso   1.00
H174   H     0.99810   0.77448   0.21719   0.00000  Uiso   1.00
H175   H     0.60012   0.96280   0.01592   0.00000  Uiso   1.00
O176   O     0.75309   0.50295   0.99499   0.00000  Uiso   1.00
O177   O     0.75900   0.75000   0.25904   0.00000  Uiso   1.00
O178   O     0.23684   0.99707   0.99498   0.00000  Uiso   1.00
N179   N     0.55299   0.56079   0.02026   0.00000  Uiso   1.00
N180   N     0.55721   0.73683   0.20843   0.00000  Uiso   1.00
N181   N     0.18512   0.91290   0.02026   0.00000  Uiso   1.00
N182   N     0.85536   0.58713   0.02028   0.00000  Uiso   1.00
N183   N     0.85959   0.76317   0.20844   0.00000  Uiso   1.00
N184   N     0.48750   0.93924   0.02028   0.00000  Uiso   1.00
