data_job_05992
_audit_creation_date              2018-12-19
_audit_creation_method            'Materials Studio'
_symmetry_space_group_name_H-M    'P1'
_symmetry_Int_Tables_number       1
_symmetry_cell_setting            triclinic
loop_
_symmetry_equiv_pos_as_xyz
  x,y,z
_cell_length_a                    13.7817
_cell_length_b                    18.1463
_cell_length_c                    18.4824
_cell_angle_alpha                 113.8220
_cell_angle_beta                  75.4281
_cell_angle_gamma                 77.3277
loop_
_atom_site_label
_atom_site_type_symbol
_atom_site_fract_x
_atom_site_fract_y
_atom_site_fract_z
_atom_site_U_iso_or_equiv
_atom_site_adp_type
_atom_site_occupancy
C1     C     0.87580   0.20204   0.40800   0.00000  Uiso   1.00
C2     C     0.98890   0.13352   0.35870   0.00000  Uiso   1.00
C3     C     0.06148   0.11750   0.28186   0.00000  Uiso   1.00
C4     C     0.16090   0.05202   0.24698   0.00000  Uiso   1.00
C5     C     0.33256   0.95286   0.16424   0.00000  Uiso   1.00
C6     C     0.80006   0.15407   0.41918   0.00000  Uiso   1.00
C7     C     0.71386   0.15534   0.39321   0.00000  Uiso   1.00
C8     C     0.65432   0.10716   0.40926   0.00000  Uiso   1.00
C9     C     0.53276   0.03995   0.42048   0.00000  Uiso   1.00
C10    C     0.87100   0.25833   0.49729   0.00000  Uiso   1.00
C11    C     0.84442   0.34727   0.53701   0.00000  Uiso   1.00
C12    C     0.84458   0.38688   0.61884   0.00000  Uiso   1.00
C13    C     0.83317   0.48155   0.75133   0.00000  Uiso   1.00
C14    C     0.92331   0.11422   0.48269   0.00000  Uiso   1.00
C15    C     0.01470   0.08583   0.39927   0.00000  Uiso   1.00
C16    C     0.11404   0.02035   0.36450   0.00000  Uiso   1.00
C17    C     0.18676   0.00423   0.28762   0.00000  Uiso   1.00
C18    C     0.82587   0.10638   0.45975   0.00000  Uiso   1.00
C19    C     0.76643   0.05819   0.47585   0.00000  Uiso   1.00
C20    C     0.68017   0.05938   0.44990   0.00000  Uiso   1.00
C21    C     0.89681   0.21064   0.53786   0.00000  Uiso   1.00
C22    C     0.89700   0.25011   0.61964   0.00000  Uiso   1.00
C23    C     0.87043   0.33909   0.65948   0.00000  Uiso   1.00
H24    H     0.85571   0.23917   0.37642   0.00000  Uiso   1.00
H25    H     0.04147   0.15443   0.25048   0.00000  Uiso   1.00
H26    H     0.69391   0.19226   0.36183   0.00000  Uiso   1.00
H27    H     0.82446   0.38416   0.50560   0.00000  Uiso   1.00
H28    H     0.25879   0.03941   0.12874   0.00000  Uiso   1.00
H29    H     0.52591   0.11922   0.36354   0.00000  Uiso   1.00
H30    H     0.80119   0.52388   0.66671   0.00000  Uiso   1.00
H31    H     0.94340   0.07709   0.51427   0.00000  Uiso   1.00
H32    H     0.13399   0.98345   0.39591   0.00000  Uiso   1.00
H33    H     0.78642   0.02129   0.50725   0.00000  Uiso   1.00
H34    H     0.91697   0.21318   0.65102   0.00000  Uiso   1.00
H35    H     0.33388   0.90064   0.24677   0.00000  Uiso   1.00
H36    H     0.60099   0.98045   0.48157   0.00000  Uiso   1.00
H37    H     0.87628   0.38510   0.78474   0.00000  Uiso   1.00
O38    O     0.42011   0.91133   0.10739   0.00000  Uiso   1.00
O39    O     0.45859   0.01606   0.41545   0.00000  Uiso   1.00
O40    O     0.81976   0.54695   0.81320   0.00000  Uiso   1.00
N41    N     0.25032   0.01962   0.17277   0.00000  Uiso   1.00
N42    N     0.56513   0.09422   0.39228   0.00000  Uiso   1.00
N43    N     0.82247   0.47254   0.67573   0.00000  Uiso   1.00
N44    N     0.29072   0.94494   0.23628   0.00000  Uiso   1.00
N45    N     0.60553   0.01955   0.45579   0.00000  Uiso   1.00
N46    N     0.86287   0.39787   0.73924   0.00000  Uiso   1.00
C47    C     0.28504   0.58582   0.79249   0.00000  Uiso   1.00
C48    C     0.34907   0.63897   0.77338   0.00000  Uiso   1.00
C49    C     0.34570   0.71760   0.83293   0.00000  Uiso   1.00
C50    C     0.41031   0.75599   0.80266   0.00000  Uiso   1.00
C51    C     0.49970   0.84446   0.78616   0.00000  Uiso   1.00
C52    C     0.22125   0.57252   0.73479   0.00000  Uiso   1.00
C53    C     0.11041   0.59527   0.76191   0.00000  Uiso   1.00
C54    C     0.06743   0.57770   0.69915   0.00000  Uiso   1.00
C55    C     0.95839   0.56295   0.62275   0.00000  Uiso   1.00
C56    C     0.36755   0.49688   0.75989   0.00000  Uiso   1.00
C57    C     0.37970   0.45602   0.80810   0.00000  Uiso   1.00
C58    C     0.45988   0.37477   0.76647   0.00000  Uiso   1.00
C59    C     0.57799   0.24257   0.72904   0.00000  Uiso   1.00
C60    C     0.40579   0.51418   0.63284   0.00000  Uiso   1.00
C61    C     0.41465   0.60006   0.68666   0.00000  Uiso   1.00
C62    C     0.47929   0.63834   0.65629   0.00000  Uiso   1.00
C63    C     0.47601   0.71701   0.71579   0.00000  Uiso   1.00
C64    C     0.28683   0.53361   0.64808   0.00000  Uiso   1.00
C65    C     0.24400   0.51600   0.58527   0.00000  Uiso   1.00
C66    C     0.13313   0.53872   0.61228   0.00000  Uiso   1.00
C67    C     0.43314   0.45797   0.67317   0.00000  Uiso   1.00
C68    C     0.51330   0.37676   0.63146   0.00000  Uiso   1.00
C69    C     0.52558   0.33578   0.67959   0.00000  Uiso   1.00
H70    H     0.23398   0.61611   0.86000   0.00000  Uiso   1.00
H71    H     0.29492   0.74770   0.90003   0.00000  Uiso   1.00
H72    H     0.05968   0.62537   0.82902   0.00000  Uiso   1.00
H73    H     0.32893   0.48615   0.87520   0.00000  Uiso   1.00
H74    H     0.39138   0.87643   0.90616   0.00000  Uiso   1.00
H75    H     0.89536   0.61848   0.75642   0.00000  Uiso   1.00
H76    H     0.46314   0.32490   0.85381   0.00000  Uiso   1.00
H77    H     0.45685   0.48388   0.56532   0.00000  Uiso   1.00
H78    H     0.53004   0.60821   0.58918   0.00000  Uiso   1.00
H79    H     0.29478   0.48589   0.51817   0.00000  Uiso   1.00
H80    H     0.56404   0.34667   0.56435   0.00000  Uiso   1.00
H81    H     0.58221   0.76322   0.65386   0.00000  Uiso   1.00
H82    H     0.08618   0.50526   0.50412   0.00000  Uiso   1.00
H83    H     0.65396   0.21169   0.60152   0.00000  Uiso   1.00
O84    O     0.53089   0.90401   0.80102   0.00000  Uiso   1.00
O85    O     0.88012   0.56557   0.60457   0.00000  Uiso   1.00
O86    O     0.62503   0.18041   0.73235   0.00000  Uiso   1.00
N87    N     0.42627   0.83272   0.84351   0.00000  Uiso   1.00
N88    N     0.96251   0.59156   0.70352   0.00000  Uiso   1.00
N89    N     0.49332   0.31708   0.79456   0.00000  Uiso   1.00
N90    N     0.52895   0.77180   0.70775   0.00000  Uiso   1.00
N91    N     0.06519   0.53064   0.56776   0.00000  Uiso   1.00
N92    N     0.59600   0.25616   0.65880   0.00000  Uiso   1.00
C93    C     0.07708   0.20287   0.79569   0.00000  Uiso   1.00
C94    C     0.12147   0.22358   0.86631   0.00000  Uiso   1.00
C95    C     0.17611   0.16396   0.88483   0.00000  Uiso   1.00
C96    C     0.21021   0.19584   0.95195   0.00000  Uiso   1.00
C97    C     0.28211   0.21457   0.05450   0.00000  Uiso   1.00
C98    C     0.95740   0.25789   0.83963   0.00000  Uiso   1.00
C99    C     0.87409   0.22711   0.83570   0.00000  Uiso   1.00
C100   C     0.77008   0.28787   0.88035   0.00000  Uiso   1.00
C101   C     0.58726   0.35985   0.94142   0.00000  Uiso   1.00
C102   C     0.12730   0.23860   0.74027   0.00000  Uiso   1.00
C103   C     0.18682   0.19162   0.65279   0.00000  Uiso   1.00
C104   C     0.22583   0.23615   0.61379   0.00000  Uiso   1.00
C105   C     0.30680   0.27819   0.52059   0.00000  Uiso   1.00
C106   C     0.04050   0.36551   0.88197   0.00000  Uiso   1.00
C107   C     0.10160   0.31192   0.91317   0.00000  Uiso   1.00
C108   C     0.13564   0.34390   0.98028   0.00000  Uiso   1.00
C109   C     0.19032   0.28433   0.99889   0.00000  Uiso   1.00
C110   C     0.93753   0.34622   0.88649   0.00000  Uiso   1.00
C111   C     0.83362   0.40704   0.93115   0.00000  Uiso   1.00
C112   C     0.75017   0.37636   0.92730   0.00000  Uiso   1.00
C113   C     0.10743   0.32694   0.78713   0.00000  Uiso   1.00
C114   C     0.14635   0.37155   0.74825   0.00000  Uiso   1.00
C115   C     0.20592   0.32464   0.66073   0.00000  Uiso   1.00
H116   H     0.09254   0.13410   0.75921   0.00000  Uiso   1.00
H117   H     0.19146   0.09561   0.84855   0.00000  Uiso   1.00
H118   H     0.88949   0.15875   0.79942   0.00000  Uiso   1.00
H119   H     0.20217   0.12326   0.61655   0.00000  Uiso   1.00
H120   H     0.29233   0.09189   0.96829   0.00000  Uiso   1.00
H121   H     0.65561   0.22502   0.86467   0.00000  Uiso   1.00
H122   H     0.31496   0.15019   0.47905   0.00000  Uiso   1.00
H123   H     0.02503   0.43428   0.91845   0.00000  Uiso   1.00
H124   H     0.12025   0.41226   0.01653   0.00000  Uiso   1.00
H125   H     0.81827   0.47540   0.96740   0.00000  Uiso   1.00
H126   H     0.13096   0.43991   0.78453   0.00000  Uiso   1.00
H127   H     0.23453   0.34889   0.10463   0.00000  Uiso   1.00
H128   H     0.59781   0.48203   0.00101   0.00000  Uiso   1.00
H129   H     0.25716   0.40720   0.61539   0.00000  Uiso   1.00
O130   O     0.32725   0.20049   0.09812   0.00000  Uiso   1.00
O131   O     0.49191   0.37515   0.96217   0.00000  Uiso   1.00
O132   O     0.35696   0.27698   0.45625   0.00000  Uiso   1.00
N133   N     0.26568   0.15540   0.98690   0.00000  Uiso   1.00
N134   N     0.67038   0.27986   0.89004   0.00000  Uiso   1.00
N135   N     0.28679   0.20991   0.52951   0.00000  Uiso   1.00
N136   N     0.23457   0.29369   0.06027   0.00000  Uiso   1.00
N137   N     0.63928   0.41816   0.96341   0.00000  Uiso   1.00
N138   N     0.25569   0.34820   0.60288   0.00000  Uiso   1.00
C139   C     0.12420   0.79796   0.59200   0.00000  Uiso   1.00
C140   C     0.01110   0.86648   0.64130   0.00000  Uiso   1.00
C141   C     0.93852   0.88250   0.71814   0.00000  Uiso   1.00
C142   C     0.83910   0.94798   0.75302   0.00000  Uiso   1.00
C143   C     0.66744   0.04714   0.83576   0.00000  Uiso   1.00
C144   C     0.19994   0.84593   0.58082   0.00000  Uiso   1.00
C145   C     0.28614   0.84466   0.60679   0.00000  Uiso   1.00
C146   C     0.34568   0.89284   0.59074   0.00000  Uiso   1.00
C147   C     0.46724   0.96005   0.57952   0.00000  Uiso   1.00
C148   C     0.12900   0.74167   0.50271   0.00000  Uiso   1.00
C149   C     0.15558   0.65273   0.46299   0.00000  Uiso   1.00
C150   C     0.15542   0.61312   0.38116   0.00000  Uiso   1.00
C151   C     0.16683   0.51845   0.24867   0.00000  Uiso   1.00
C152   C     0.07669   0.88578   0.51731   0.00000  Uiso   1.00
C153   C     0.98530   0.91417   0.60073   0.00000  Uiso   1.00
C154   C     0.88596   0.97965   0.63550   0.00000  Uiso   1.00
C155   C     0.81324   0.99577   0.71238   0.00000  Uiso   1.00
C156   C     0.17413   0.89362   0.54025   0.00000  Uiso   1.00
C157   C     0.23357   0.94181   0.52415   0.00000  Uiso   1.00
C158   C     0.31983   0.94062   0.55010   0.00000  Uiso   1.00
C159   C     0.10319   0.78936   0.46214   0.00000  Uiso   1.00
C160   C     0.10300   0.74989   0.38036   0.00000  Uiso   1.00
C161   C     0.12957   0.66091   0.34052   0.00000  Uiso   1.00
H162   H     0.14429   0.76083   0.62358   0.00000  Uiso   1.00
H163   H     0.95853   0.84557   0.74951   0.00000  Uiso   1.00
H164   H     0.30609   0.80773   0.63817   0.00000  Uiso   1.00
H165   H     0.17554   0.61584   0.49440   0.00000  Uiso   1.00
H166   H     0.74121   0.96059   0.87126   0.00000  Uiso   1.00
H167   H     0.47409   0.88078   0.63646   0.00000  Uiso   1.00
H168   H     0.19880   0.47612   0.33329   0.00000  Uiso   1.00
H169   H     0.05660   0.92291   0.48573   0.00000  Uiso   1.00
H170   H     0.86601   0.01655   0.60409   0.00000  Uiso   1.00
H171   H     0.21358   0.97871   0.49275   0.00000  Uiso   1.00
H172   H     0.08303   0.78682   0.34898   0.00000  Uiso   1.00
H173   H     0.66612   0.09936   0.75323   0.00000  Uiso   1.00
H174   H     0.39901   0.01955   0.51843   0.00000  Uiso   1.00
H175   H     0.12372   0.61490   0.21526   0.00000  Uiso   1.00
O176   O     0.57989   0.08867   0.89261   0.00000  Uiso   1.00
O177   O     0.54141   0.98394   0.58455   0.00000  Uiso   1.00
O178   O     0.18024   0.45305   0.18680   0.00000  Uiso   1.00
N179   N     0.74968   0.98038   0.82723   0.00000  Uiso   1.00
N180   N     0.43487   0.90578   0.60772   0.00000  Uiso   1.00
N181   N     0.17753   0.52746   0.32427   0.00000  Uiso   1.00
N182   N     0.70928   0.05506   0.76372   0.00000  Uiso   1.00
N183   N     0.39447   0.98045   0.54421   0.00000  Uiso   1.00
N184   N     0.13713   0.60213   0.26076   0.00000  Uiso   1.00
C185   C     0.71496   0.41418   0.20751   0.00000  Uiso   1.00
C186   C     0.65093   0.36103   0.22662   0.00000  Uiso   1.00
C187   C     0.65430   0.28240   0.16707   0.00000  Uiso   1.00
C188   C     0.58969   0.24401   0.19734   0.00000  Uiso   1.00
C189   C     0.50029   0.15554   0.21384   0.00000  Uiso   1.00
C190   C     0.77875   0.42748   0.26521   0.00000  Uiso   1.00
C191   C     0.88959   0.40473   0.23809   0.00000  Uiso   1.00
C192   C     0.93257   0.42230   0.30085   0.00000  Uiso   1.00
C193   C     0.04161   0.43705   0.37725   0.00000  Uiso   1.00
C194   C     0.63245   0.50312   0.24011   0.00000  Uiso   1.00
C195   C     0.62030   0.54398   0.19190   0.00000  Uiso   1.00
C196   C     0.54012   0.62523   0.23353   0.00000  Uiso   1.00
C197   C     0.42201   0.75743   0.27096   0.00000  Uiso   1.00
C198   C     0.59421   0.48582   0.36716   0.00000  Uiso   1.00
C199   C     0.58535   0.39994   0.31334   0.00000  Uiso   1.00
C200   C     0.52071   0.36166   0.34371   0.00000  Uiso   1.00
C201   C     0.52398   0.28299   0.28421   0.00000  Uiso   1.00
C202   C     0.71317   0.46639   0.35192   0.00000  Uiso   1.00
C203   C     0.75600   0.48400   0.41473   0.00000  Uiso   1.00
C204   C     0.86687   0.46128   0.38772   0.00000  Uiso   1.00
C205   C     0.56686   0.54203   0.32682   0.00000  Uiso   1.00
C206   C     0.48670   0.62324   0.36854   0.00000  Uiso   1.00
C207   C     0.47442   0.66422   0.32041   0.00000  Uiso   1.00
H208   H     0.76602   0.38389   0.14000   0.00000  Uiso   1.00
H209   H     0.70508   0.25230   0.09997   0.00000  Uiso   1.00
H210   H     0.94032   0.37463   0.17098   0.00000  Uiso   1.00
H211   H     0.67107   0.51385   0.12480   0.00000  Uiso   1.00
H212   H     0.60862   0.12357   0.09384   0.00000  Uiso   1.00
H213   H     0.10464   0.38152   0.24358   0.00000  Uiso   1.00
H214   H     0.53686   0.67510   0.14619   0.00000  Uiso   1.00
H215   H     0.54315   0.51612   0.43468   0.00000  Uiso   1.00
H216   H     0.46996   0.39179   0.41082   0.00000  Uiso   1.00
H217   H     0.70522   0.51411   0.48183   0.00000  Uiso   1.00
H218   H     0.43596   0.65333   0.43565   0.00000  Uiso   1.00
H219   H     0.41779   0.23678   0.34614   0.00000  Uiso   1.00
H220   H     0.91382   0.49474   0.49588   0.00000  Uiso   1.00
H221   H     0.34604   0.78831   0.39848   0.00000  Uiso   1.00
O222   O     0.46911   0.09599   0.19898   0.00000  Uiso   1.00
O223   O     0.11987   0.43443   0.39543   0.00000  Uiso   1.00
O224   O     0.37496   0.81959   0.26765   0.00000  Uiso   1.00
N225   N     0.57373   0.16728   0.15649   0.00000  Uiso   1.00
N226   N     0.03749   0.40844   0.29648   0.00000  Uiso   1.00
N227   N     0.50668   0.68292   0.20543   0.00000  Uiso   1.00
N228   N     0.47105   0.22820   0.29225   0.00000  Uiso   1.00
N229   N     0.93481   0.46936   0.43224   0.00000  Uiso   1.00
N230   N     0.40400   0.74384   0.34119   0.00000  Uiso   1.00
C231   C     0.92292   0.79713   0.20431   0.00000  Uiso   1.00
C232   C     0.87853   0.77642   0.13369   0.00000  Uiso   1.00
C233   C     0.82389   0.83604   0.11517   0.00000  Uiso   1.00
C234   C     0.78979   0.80416   0.04805   0.00000  Uiso   1.00
C235   C     0.71788   0.78543   0.94550   0.00000  Uiso   1.00
C236   C     0.04260   0.74211   0.16037   0.00000  Uiso   1.00
C237   C     0.12591   0.77289   0.16430   0.00000  Uiso   1.00
C238   C     0.22992   0.71213   0.11965   0.00000  Uiso   1.00
C239   C     0.41274   0.64014   0.05858   0.00000  Uiso   1.00
C240   C     0.87270   0.76140   0.25973   0.00000  Uiso   1.00
C241   C     0.81318   0.80838   0.34721   0.00000  Uiso   1.00
C242   C     0.77417   0.76385   0.38621   0.00000  Uiso   1.00
C243   C     0.69320   0.72181   0.47941   0.00000  Uiso   1.00
C244   C     0.95950   0.63449   0.11803   0.00000  Uiso   1.00
C245   C     0.89840   0.68808   0.08683   0.00000  Uiso   1.00
C246   C     0.86436   0.65610   0.01972   0.00000  Uiso   1.00
C247   C     0.80968   0.71567   0.00111   0.00000  Uiso   1.00
C248   C     0.06247   0.65378   0.11351   0.00000  Uiso   1.00
C249   C     0.16638   0.59296   0.06885   0.00000  Uiso   1.00
C250   C     0.24983   0.62364   0.07270   0.00000  Uiso   1.00
C251   C     0.89257   0.67306   0.21287   0.00000  Uiso   1.00
C252   C     0.85365   0.62845   0.25175   0.00000  Uiso   1.00
C253   C     0.79408   0.67536   0.33927   0.00000  Uiso   1.00
H254   H     0.90746   0.86590   0.24079   0.00000  Uiso   1.00
H255   H     0.80854   0.90439   0.15145   0.00000  Uiso   1.00
H256   H     0.11051   0.84125   0.20058   0.00000  Uiso   1.00
H257   H     0.79783   0.87674   0.38345   0.00000  Uiso   1.00
H258   H     0.70767   0.90811   0.03171   0.00000  Uiso   1.00
H259   H     0.34439   0.77498   0.13532   0.00000  Uiso   1.00
H260   H     0.68504   0.84981   0.52095   0.00000  Uiso   1.00
H261   H     0.97497   0.56572   0.08155   0.00000  Uiso   1.00
H262   H     0.87975   0.58774   0.98347   0.00000  Uiso   1.00
H263   H     0.18173   0.52460   0.03260   0.00000  Uiso   1.00
H264   H     0.86904   0.56009   0.21547   0.00000  Uiso   1.00
H265   H     0.76547   0.65111   0.89537   0.00000  Uiso   1.00
H266   H     0.40219   0.51797   0.99899   0.00000  Uiso   1.00
H267   H     0.74284   0.59280   0.38461   0.00000  Uiso   1.00
O268   O     0.67275   0.79951   0.90188   0.00000  Uiso   1.00
O269   O     0.50809   0.62485   0.03783   0.00000  Uiso   1.00
O270   O     0.64304   0.72302   0.54375   0.00000  Uiso   1.00
N271   N     0.73432   0.84460   0.01309   0.00000  Uiso   1.00
N272   N     0.32962   0.72014   0.10996   0.00000  Uiso   1.00
N273   N     0.71320   0.79009   0.47049   0.00000  Uiso   1.00
N274   N     0.76542   0.70631   0.93973   0.00000  Uiso   1.00
N275   N     0.36072   0.58184   0.03659   0.00000  Uiso   1.00
N276   N     0.74431   0.65180   0.39712   0.00000  Uiso   1.00
