data_job_06877
_audit_creation_date              2018-12-19
_audit_creation_method            'Materials Studio'
_symmetry_space_group_name_H-M    'P1'
_symmetry_Int_Tables_number       1
_symmetry_cell_setting            triclinic
loop_
_symmetry_equiv_pos_as_xyz
  x,y,z
_cell_length_a                    16.9994
_cell_length_b                    20.5138
_cell_length_c                    23.2164
_cell_angle_alpha                 84.9886
_cell_angle_beta                  93.4950
_cell_angle_gamma                 69.4209
loop_
_atom_site_label
_atom_site_type_symbol
_atom_site_fract_x
_atom_site_fract_y
_atom_site_fract_z
_atom_site_U_iso_or_equiv
_atom_site_adp_type
_atom_site_occupancy
C1     C     0.28326   0.20181   0.64220   0.00000  Uiso   1.00
C2     C     0.24033   0.14784   0.64619   0.00000  Uiso   1.00
C3     C     0.27864   0.07690   0.64135   0.00000  Uiso   1.00
C4     C     0.22854   0.03625   0.64624   0.00000  Uiso   1.00
C5     C     0.17485   0.94800   0.65097   0.00000  Uiso   1.00
C6     C     0.23167   0.25875   0.59383   0.00000  Uiso   1.00
C7     C     0.26270   0.28107   0.54497   0.00000  Uiso   1.00
C8     C     0.20530   0.33380   0.50578   0.00000  Uiso   1.00
C9     C     0.13817   0.41777   0.42925   0.00000  Uiso   1.00
C10    C     0.27014   0.23584   0.69841   0.00000  Uiso   1.00
C11    C     0.33351   0.23890   0.73749   0.00000  Uiso   1.00
C12    C     0.30851   0.27236   0.78634   0.00000  Uiso   1.00
C13    C     0.30111   0.32075   0.87219   0.00000  Uiso   1.00
C14    C     0.12617   0.25579   0.65947   0.00000  Uiso   1.00
C15    C     0.15500   0.17716   0.65557   0.00000  Uiso   1.00
C16    C     0.10483   0.13662   0.66046   0.00000  Uiso   1.00
C17    C     0.14306   0.06562   0.65563   0.00000  Uiso   1.00
C18    C     0.14634   0.28807   0.60320   0.00000  Uiso   1.00
C19    C     0.08889   0.34079   0.56408   0.00000  Uiso   1.00
C20    C     0.11982   0.36317   0.51518   0.00000  Uiso   1.00
C21    C     0.18481   0.26516   0.70779   0.00000  Uiso   1.00
C22    C     0.15971   0.29862   0.75659   0.00000  Uiso   1.00
C23    C     0.22303   0.30173   0.79574   0.00000  Uiso   1.00
H24    H     0.34969   0.17899   0.63490   0.00000  Uiso   1.00
H25    H     0.34467   0.05423   0.63409   0.00000  Uiso   1.00
H26    H     0.32873   0.25837   0.53773   0.00000  Uiso   1.00
H27    H     0.39954   0.21621   0.73022   0.00000  Uiso   1.00
H28    H     0.30147   0.92884   0.63731   0.00000  Uiso   1.00
H29    H     0.26786   0.35930   0.43414   0.00000  Uiso   1.00
H30    H     0.41717   0.27040   0.84004   0.00000  Uiso   1.00
H31    H     0.05974   0.27862   0.66677   0.00000  Uiso   1.00
H32    H     0.03881   0.15932   0.66772   0.00000  Uiso   1.00
H33    H     0.02287   0.36347   0.57135   0.00000  Uiso   1.00
H34    H     0.09367   0.32130   0.76384   0.00000  Uiso   1.00
H35    H     0.05322   0.01414   0.66460   0.00000  Uiso   1.00
H36    H     0.01961   0.44460   0.46143   0.00000  Uiso   1.00
H37    H     0.16892   0.35570   0.86732   0.00000  Uiso   1.00
O38    O     0.16880   0.89122   0.65099   0.00000  Uiso   1.00
O39    O     0.12471   0.45598   0.38444   0.00000  Uiso   1.00
O40    O     0.32060   0.33933   0.91696   0.00000  Uiso   1.00
N41    N     0.24592   0.96528   0.64362   0.00000  Uiso   1.00
N42    N     0.21450   0.36773   0.45366   0.00000  Uiso   1.00
N43    N     0.35409   0.28463   0.83313   0.00000  Uiso   1.00
N44    N     0.11234   0.01118   0.65830   0.00000  Uiso   1.00
N45    N     0.08092   0.41363   0.46834   0.00000  Uiso   1.00
N46    N     0.22050   0.33053   0.84781   0.00000  Uiso   1.00
C47    C     0.67007   0.74360   0.75093   0.00000  Uiso   1.00
C48    C     0.74568   0.72287   0.79654   0.00000  Uiso   1.00
C49    C     0.74952   0.75518   0.84617   0.00000  Uiso   1.00
C50    C     0.82437   0.72841   0.88246   0.00000  Uiso   1.00
C51    C     0.93136   0.70492   0.95524   0.00000  Uiso   1.00
C52    C     0.70239   0.75810   0.69313   0.00000  Uiso   1.00
C53    C     0.66981   0.82004   0.65581   0.00000  Uiso   1.00
C54    C     0.70822   0.82292   0.60504   0.00000  Uiso   1.00
C55    C     0.74795   0.85410   0.51726   0.00000  Uiso   1.00
C56    C     0.64858   0.67788   0.74678   0.00000  Uiso   1.00
C57    C     0.57076   0.67236   0.75455   0.00000  Uiso   1.00
C58    C     0.56386   0.60770   0.74894   0.00000  Uiso   1.00
C59    C     0.52006   0.51433   0.74445   0.00000  Uiso   1.00
C60    C     0.79618   0.63859   0.72712   0.00000  Uiso   1.00
C61    C     0.81417   0.66583   0.78361   0.00000  Uiso   1.00
C62    C     0.88904   0.63900   0.81983   0.00000  Uiso   1.00
C63    C     0.89299   0.67127   0.86951   0.00000  Uiso   1.00
C64    C     0.77088   0.70107   0.68020   0.00000  Uiso   1.00
C65    C     0.80934   0.70385   0.62947   0.00000  Uiso   1.00
C66    C     0.77684   0.76578   0.59209   0.00000  Uiso   1.00
C67    C     0.71708   0.62084   0.73385   0.00000  Uiso   1.00
C68    C     0.71029   0.55618   0.72822   0.00000  Uiso   1.00
C69    C     0.63248   0.55056   0.73598   0.00000  Uiso   1.00
H70    H     0.61675   0.78801   0.76099   0.00000  Uiso   1.00
H71    H     0.69650   0.79933   0.85616   0.00000  Uiso   1.00
H72    H     0.61680   0.86416   0.66583   0.00000  Uiso   1.00
H73    H     0.51777   0.71651   0.76456   0.00000  Uiso   1.00
H74    H     0.81513   0.78674   0.95596   0.00000  Uiso   1.00
H75    H     0.64707   0.92344   0.55463   0.00000  Uiso   1.00
H76    H     0.43824   0.61209   0.76281   0.00000  Uiso   1.00
H77    H     0.84951   0.59418   0.71705   0.00000  Uiso   1.00
H78    H     0.94204   0.59486   0.80981   0.00000  Uiso   1.00
H79    H     0.86234   0.65970   0.61948   0.00000  Uiso   1.00
H80    H     0.76331   0.51205   0.71821   0.00000  Uiso   1.00
H81    H     0.01442   0.62079   0.91834   0.00000  Uiso   1.00
H82    H     0.84636   0.75749   0.51701   0.00000  Uiso   1.00
H83    H     0.63753   0.44614   0.72520   0.00000  Uiso   1.00
O84    O     0.97145   0.70772   0.99896   0.00000  Uiso   1.00
O85    O     0.75095   0.88707   0.47242   0.00000  Uiso   1.00
O86    O     0.47698   0.47858   0.74556   0.00000  Uiso   1.00
N87    N     0.84933   0.74758   0.93438   0.00000  Uiso   1.00
N88    N     0.69221   0.87539   0.55917   0.00000  Uiso   1.00
N89    N     0.49697   0.58431   0.75379   0.00000  Uiso   1.00
N90    N     0.95657   0.65828   0.91414   0.00000  Uiso   1.00
N91    N     0.79945   0.78610   0.53892   0.00000  Uiso   1.00
N92    N     0.60421   0.49501   0.73354   0.00000  Uiso   1.00
C93    C     0.58648   0.40767   0.47086   0.00000  Uiso   1.00
C94    C     0.51112   0.42661   0.50681   0.00000  Uiso   1.00
C95    C     0.43434   0.41963   0.49213   0.00000  Uiso   1.00
C96    C     0.37342   0.43988   0.53081   0.00000  Uiso   1.00
C97    C     0.25406   0.46533   0.57878   0.00000  Uiso   1.00
C98    C     0.60711   0.47402   0.46002   0.00000  Uiso   1.00
C99    C     0.61104   0.50690   0.40601   0.00000  Uiso   1.00
C100   C     0.63093   0.56705   0.40530   0.00000  Uiso   1.00
C101   C     0.66065   0.66607   0.38063   0.00000  Uiso   1.00
C102   C     0.66061   0.35554   0.51071   0.00000  Uiso   1.00
C103   C     0.70955   0.28880   0.49931   0.00000  Uiso   1.00
C104   C     0.77449   0.24921   0.54127   0.00000  Uiso   1.00
C105   C     0.88728   0.16427   0.59530   0.00000  Uiso   1.00
C106   C     0.61481   0.45604   0.56565   0.00000  Uiso   1.00
C107   C     0.52652   0.45289   0.55829   0.00000  Uiso   1.00
C108   C     0.46569   0.47315   0.59700   0.00000  Uiso   1.00
C109   C     0.38883   0.46620   0.58239   0.00000  Uiso   1.00
C110   C     0.62250   0.50030   0.51150   0.00000  Uiso   1.00
C111   C     0.64239   0.56041   0.51088   0.00000  Uiso   1.00
C112   C     0.64635   0.59337   0.45687   0.00000  Uiso   1.00
C113   C     0.67600   0.38181   0.56219   0.00000  Uiso   1.00
C114   C     0.74089   0.34232   0.60418   0.00000  Uiso   1.00
C115   C     0.78991   0.27553   0.59284   0.00000  Uiso   1.00
H116   H     0.57450   0.38722   0.43078   0.00000  Uiso   1.00
H117   H     0.42245   0.39930   0.45228   0.00000  Uiso   1.00
H118   H     0.59914   0.48655   0.36617   0.00000  Uiso   1.00
H119   H     0.69762   0.26849   0.45946   0.00000  Uiso   1.00
H120   H     0.26066   0.42431   0.49882   0.00000  Uiso   1.00
H121   H     0.63324   0.60826   0.31725   0.00000  Uiso   1.00
H122   H     0.84091   0.14843   0.51396   0.00000  Uiso   1.00
H123   H     0.62680   0.47650   0.60573   0.00000  Uiso   1.00
H124   H     0.47762   0.49348   0.63684   0.00000  Uiso   1.00
H125   H     0.65430   0.58073   0.55073   0.00000  Uiso   1.00
H126   H     0.75278   0.36267   0.64401   0.00000  Uiso   1.00
H127   H     0.30544   0.50075   0.64861   0.00000  Uiso   1.00
H128   H     0.67801   0.68470   0.46704   0.00000  Uiso   1.00
H129   H     0.88568   0.22487   0.66376   0.00000  Uiso   1.00
O130   O     0.18397   0.47211   0.59101   0.00000  Uiso   1.00
O131   O     0.67278   0.71344   0.35280   0.00000  Uiso   1.00
O132   O     0.94524   0.11015   0.61088   0.00000  Uiso   1.00
N133   N     0.29168   0.43996   0.52981   0.00000  Uiso   1.00
N134   N     0.64000   0.61194   0.36005   0.00000  Uiso   1.00
N135   N     0.83417   0.18205   0.54396   0.00000  Uiso   1.00
N136   N     0.31577   0.48109   0.61041   0.00000  Uiso   1.00
N137   N     0.66409   0.65308   0.44065   0.00000  Uiso   1.00
N138   N     0.85826   0.22318   0.62456   0.00000  Uiso   1.00
C139   C     0.69340   0.23550   0.21731   0.00000  Uiso   1.00
C140   C     0.61013   0.22412   0.22298   0.00000  Uiso   1.00
C141   C     0.54939   0.25686   0.25885   0.00000  Uiso   1.00
C142   C     0.47754   0.23936   0.25778   0.00000  Uiso   1.00
C143   C     0.34983   0.22909   0.27199   0.00000  Uiso   1.00
C144   C     0.69407   0.25788   0.15301   0.00000  Uiso   1.00
C145   C     0.70391   0.31901   0.13005   0.00000  Uiso   1.00
C146   C     0.70273   0.32991   0.07008   0.00000  Uiso   1.00
C147   C     0.70541   0.37204   0.97566   0.00000  Uiso   1.00
C148   C     0.76259   0.16330   0.23093   0.00000  Uiso   1.00
C149   C     0.83006   0.14490   0.27348   0.00000  Uiso   1.00
C150   C     0.88658   0.07618   0.27911   0.00000  Uiso   1.00
C151   C     0.99564   0.97145   0.30568   0.00000  Uiso   1.00
C152   C     0.67383   0.14618   0.15164   0.00000  Uiso   1.00
C153   C     0.59950   0.17560   0.18731   0.00000  Uiso   1.00
C154   C     0.52772   0.15804   0.18619   0.00000  Uiso   1.00
C155   C     0.46688   0.19075   0.22205   0.00000  Uiso   1.00
C156   C     0.68344   0.20937   0.11734   0.00000  Uiso   1.00
C157   C     0.68225   0.22018   0.05739   0.00000  Uiso   1.00
C158   C     0.69208   0.28131   0.03435   0.00000  Uiso   1.00
C159   C     0.75196   0.11478   0.19527   0.00000  Uiso   1.00
C160   C     0.80839   0.04608   0.20083   0.00000  Uiso   1.00
C161   C     0.87593   0.02758   0.24338   0.00000  Uiso   1.00
H162   H     0.70168   0.27327   0.24508   0.00000  Uiso   1.00
H163   H     0.55764   0.29441   0.28644   0.00000  Uiso   1.00
H164   H     0.71215   0.35654   0.15766   0.00000  Uiso   1.00
H165   H     0.83827   0.18246   0.30108   0.00000  Uiso   1.00
H166   H     0.39323   0.29647   0.31655   0.00000  Uiso   1.00
H167   H     0.71905   0.42746   0.04502   0.00000  Uiso   1.00
H168   H     0.98500   0.06038   0.34743   0.00000  Uiso   1.00
H169   H     0.66555   0.10840   0.12387   0.00000  Uiso   1.00
H170   H     0.51951   0.12049   0.15859   0.00000  Uiso   1.00
H171   H     0.67402   0.18262   0.02981   0.00000  Uiso   1.00
H172   H     0.80014   0.00855   0.17322   0.00000  Uiso   1.00
H173   H     0.36228   0.15532   0.21278   0.00000  Uiso   1.00
H174   H     0.68811   0.28630   0.94125   0.00000  Uiso   1.00
H175   H     0.95406   0.91923   0.24366   0.00000  Uiso   1.00
O176   O     0.28233   0.23684   0.28968   0.00000  Uiso   1.00
O177   O     0.70981   0.40868   0.93344   0.00000  Uiso   1.00
O178   O     0.05873   0.92709   0.33020   0.00000  Uiso   1.00
N179   N     0.40599   0.26158   0.28738   0.00000  Uiso   1.00
N180   N     0.71061   0.38405   0.03351   0.00000  Uiso   1.00
N181   N     0.95926   0.04087   0.31623   0.00000  Uiso   1.00
N182   N     0.38934   0.18563   0.23154   0.00000  Uiso   1.00
N183   N     0.69395   0.30810   0.97767   0.00000  Uiso   1.00
N184   N     0.94261   0.96491   0.26039   0.00000  Uiso   1.00
C185   C     0.25046   0.69996   0.14537   0.00000  Uiso   1.00
C186   C     0.27441   0.71341   0.20639   0.00000  Uiso   1.00
C187   C     0.35044   0.67726   0.23981   0.00000  Uiso   1.00
C188   C     0.36012   0.69749   0.29453   0.00000  Uiso   1.00
C189   C     0.40707   0.71012   0.38614   0.00000  Uiso   1.00
C190   C     0.22746   0.76964   0.10720   0.00000  Uiso   1.00
C191   C     0.26402   0.78077   0.05722   0.00000  Uiso   1.00
C192   C     0.23417   0.84834   0.02843   0.00000  Uiso   1.00
C193   C     0.20819   0.94827   0.96603   0.00000  Uiso   1.00
C194   C     0.16866   0.68549   0.14839   0.00000  Uiso   1.00
C195   C     0.15575   0.62588   0.13303   0.00000  Uiso   1.00
C196   C     0.07639   0.62261   0.13892   0.00000  Uiso   1.00
C197   C     0.95910   0.59188   0.14047   0.00000  Uiso   1.00
C198   C     0.13245   0.80016   0.18312   0.00000  Uiso   1.00
C199   C     0.21031   0.76784   0.22689   0.00000  Uiso   1.00
C200   C     0.21988   0.78812   0.28157   0.00000  Uiso   1.00
C201   C     0.29591   0.75201   0.31507   0.00000  Uiso   1.00
C202   C     0.16337   0.82407   0.12770   0.00000  Uiso   1.00
C203   C     0.13345   0.89164   0.09898   0.00000  Uiso   1.00
C204   C     0.16996   0.90287   0.04897   0.00000  Uiso   1.00
C205   C     0.10456   0.73992   0.16889   0.00000  Uiso   1.00
C206   C     0.02519   0.73674   0.17479   0.00000  Uiso   1.00
C207   C     0.01218   0.67713   0.15945   0.00000  Uiso   1.00
H208   H     0.30036   0.65759   0.12941   0.00000  Uiso   1.00
H209   H     0.40003   0.63514   0.22393   0.00000  Uiso   1.00
H210   H     0.31361   0.73864   0.04136   0.00000  Uiso   1.00
H211   H     0.20537   0.58377   0.11717   0.00000  Uiso   1.00
H212   H     0.48227   0.63428   0.33775   0.00000  Uiso   1.00
H213   H     0.30004   0.85251   0.95279   0.00000  Uiso   1.00
H214   H     0.07179   0.52593   0.11264   0.00000  Uiso   1.00
H215   H     0.08255   0.84254   0.19907   0.00000  Uiso   1.00
H216   H     0.17026   0.83024   0.29742   0.00000  Uiso   1.00
H217   H     0.08385   0.93374   0.11485   0.00000  Uiso   1.00
H218   H     0.97561   0.77887   0.19066   0.00000  Uiso   1.00
H219   H     0.29579   0.79264   0.39740   0.00000  Uiso   1.00
H220   H     0.11355   0.01086   0.01243   0.00000  Uiso   1.00
H221   H     0.88530   0.68428   0.17229   0.00000  Uiso   1.00
O222   O     0.45067   0.70205   0.43100   0.00000  Uiso   1.00
O223   O     0.21157   0.98835   0.92594   0.00000  Uiso   1.00
O224   O     0.91212   0.55989   0.13567   0.00000  Uiso   1.00
N225   N     0.42634   0.67323   0.33830   0.00000  Uiso   1.00
N226   N     0.25597   0.87726   0.97839   0.00000  Uiso   1.00
N227   N     0.04257   0.57195   0.12782   0.00000  Uiso   1.00
N228   N     0.32599   0.75844   0.37039   0.00000  Uiso   1.00
N229   N     0.15562   0.96247   0.01048   0.00000  Uiso   1.00
N230   N     0.94222   0.65715   0.15992   0.00000  Uiso   1.00
C231   C     0.54542   0.86071   0.98234   0.00000  Uiso   1.00
C232   C     0.59955   0.78676   0.00945   0.00000  Uiso   1.00
C233   C     0.58395   0.72613   0.00086   0.00000  Uiso   1.00
C234   C     0.64098   0.66357   0.02955   0.00000  Uiso   1.00
C235   C     0.71439   0.54901   0.06615   0.00000  Uiso   1.00
C236   C     0.60433   0.88902   0.95009   0.00000  Uiso   1.00
C237   C     0.59275   0.91438   0.89158   0.00000  Uiso   1.00
C238   C     0.65380   0.93792   0.87031   0.00000  Uiso   1.00
C239   C     0.73461   0.98217   0.81474   0.00000  Uiso   1.00
C240   C     0.52081   0.90412   0.03289   0.00000  Uiso   1.00
C241   C     0.43899   0.94218   0.04399   0.00000  Uiso   1.00
C242   C     0.42972   0.97845   0.09242   0.00000  Uiso   1.00
C243   C     0.38084   0.04613   0.16542   0.00000  Uiso   1.00
C244   C     0.67444   0.85745   0.04859   0.00000  Uiso   1.00
C245   C     0.66963   0.78499   0.04543   0.00000  Uiso   1.00
C246   C     0.72670   0.72251   0.07415   0.00000  Uiso   1.00
C247   C     0.71119   0.66180   0.06560   0.00000  Uiso   1.00
C248   C     0.67441   0.88725   0.98606   0.00000  Uiso   1.00
C249   C     0.73550   0.91077   0.96487   0.00000  Uiso   1.00
C250   C     0.72401   0.93615   0.90635   0.00000  Uiso   1.00
C251   C     0.59088   0.90234   0.06887   0.00000  Uiso   1.00
C252   C     0.58174   0.93856   0.11728   0.00000  Uiso   1.00
C253   C     0.49993   0.97667   0.12847   0.00000  Uiso   1.00
H254   H     0.49086   0.86209   0.95433   0.00000  Uiso   1.00
H255   H     0.52971   0.72752   0.97301   0.00000  Uiso   1.00
H256   H     0.53851   0.91575   0.86375   0.00000  Uiso   1.00
H257   H     0.38478   0.94354   0.01614   0.00000  Uiso   1.00
H258   H     0.60371   0.57753   0.00956   0.00000  Uiso   1.00
H259   H     0.62223   0.97445   0.77920   0.00000  Uiso   1.00
H260   H     0.29806   0.03306   0.10054   0.00000  Uiso   1.00
H261   H     0.72901   0.85607   0.07660   0.00000  Uiso   1.00
H262   H     0.78093   0.72116   0.10199   0.00000  Uiso   1.00
H263   H     0.78972   0.90939   0.99273   0.00000  Uiso   1.00
H264   H     0.63599   0.93718   0.14512   0.00000  Uiso   1.00
H265   H     0.80761   0.57237   0.11425   0.00000  Uiso   1.00
H266   H     0.82612   0.96929   0.88388   0.00000  Uiso   1.00
H267   H     0.50195   0.02789   0.20522   0.00000  Uiso   1.00
O268   O     0.73553   0.48631   0.07639   0.00000  Uiso   1.00
O269   O     0.75982   0.00706   0.77415   0.00000  Uiso   1.00
O270   O     0.33451   0.08395   0.19575   0.00000  Uiso   1.00
N271   N     0.64456   0.59483   0.03073   0.00000  Uiso   1.00
N272   N     0.66189   0.96592   0.81534   0.00000  Uiso   1.00
N273   N     0.35881   0.02073   0.11576   0.00000  Uiso   1.00
N274   N     0.75428   0.59205   0.08706   0.00000  Uiso   1.00
N275   N     0.77160   0.96314   0.87167   0.00000  Uiso   1.00
N276   N     0.46853   0.01795   0.17209   0.00000  Uiso   1.00
C277   C     0.33701   0.95375   0.41425   0.00000  Uiso   1.00
C278   C     0.36408   0.01644   0.42036   0.00000  Uiso   1.00
C279   C     0.31108   0.08631   0.41224   0.00000  Uiso   1.00
C280   C     0.34808   0.13586   0.41988   0.00000  Uiso   1.00
C281   C     0.37690   0.23619   0.42708   0.00000  Uiso   1.00
C282   C     0.36653   0.90704   0.47204   0.00000  Uiso   1.00
C283   C     0.31559   0.88492   0.50737   0.00000  Uiso   1.00
C284   C     0.35466   0.84237   0.55851   0.00000  Uiso   1.00
C285   C     0.38729   0.77281   0.64592   0.00000  Uiso   1.00
C286   C     0.39001   0.91295   0.36956   0.00000  Uiso   1.00
C287   C     0.35882   0.89578   0.31871   0.00000  Uiso   1.00
C288   C     0.41766   0.85819   0.28357   0.00000  Uiso   1.00
C289   C     0.48675   0.79781   0.21185   0.00000  Uiso   1.00
C290   C     0.49696   0.91751   0.44226   0.00000  Uiso   1.00
C291   C     0.45096   0.99675   0.43558   0.00000  Uiso   1.00
C292   C     0.48805   0.04621   0.44323   0.00000  Uiso   1.00
C293   C     0.43511   0.11614   0.43512   0.00000  Uiso   1.00
C294   C     0.45341   0.88735   0.48726   0.00000  Uiso   1.00
C295   C     0.49256   0.84482   0.53835   0.00000  Uiso   1.00
C296   C     0.44169   0.82265   0.57375   0.00000  Uiso   1.00
C297   C     0.47690   0.89326   0.38476   0.00000  Uiso   1.00
C298   C     0.53579   0.85569   0.34970   0.00000  Uiso   1.00
C299   C     0.50469   0.83847   0.29881   0.00000  Uiso   1.00
H300   H     0.26937   0.96908   0.40242   0.00000  Uiso   1.00
H301   H     0.24385   0.10152   0.40048   0.00000  Uiso   1.00
H302   H     0.24836   0.90016   0.49558   0.00000  Uiso   1.00
H303   H     0.29159   0.91102   0.30696   0.00000  Uiso   1.00
H304   H     0.25387   0.23968   0.40506   0.00000  Uiso   1.00
H305   H     0.26339   0.81507   0.60558   0.00000  Uiso   1.00
H306   H     0.35453   0.83798   0.20783   0.00000  Uiso   1.00
H307   H     0.56460   0.90218   0.45410   0.00000  Uiso   1.00
H308   H     0.55528   0.03096   0.45500   0.00000  Uiso   1.00
H309   H     0.55979   0.82960   0.55011   0.00000  Uiso   1.00
H310   H     0.60302   0.84046   0.36148   0.00000  Uiso   1.00
H311   H     0.50664   0.18241   0.44931   0.00000  Uiso   1.00
H312   H     0.51616   0.75780   0.64984   0.00000  Uiso   1.00
H313   H     0.60730   0.78071   0.25208   0.00000  Uiso   1.00
O314   O     0.36879   0.29696   0.42686   0.00000  Uiso   1.00
O315   O     0.38128   0.73989   0.68994   0.00000  Uiso   1.00
O316   O     0.50086   0.76995   0.16809   0.00000  Uiso   1.00
N317   N     0.31464   0.20853   0.41534   0.00000  Uiso   1.00
N318   N     0.32354   0.81156   0.60282   0.00000  Uiso   1.00
N319   N     0.40875   0.83296   0.23096   0.00000  Uiso   1.00
N320   N     0.45065   0.17771   0.43915   0.00000  Uiso   1.00
N321   N     0.45955   0.78074   0.62663   0.00000  Uiso   1.00
N322   N     0.54476   0.80214   0.25477   0.00000  Uiso   1.00
C323   C     0.87329   0.42978   0.31886   0.00000  Uiso   1.00
C324   C     0.79704   0.48041   0.27984   0.00000  Uiso   1.00
C325   C     0.73759   0.46209   0.24823   0.00000  Uiso   1.00
C326   C     0.67252   0.51613   0.21517   0.00000  Uiso   1.00
C327   C     0.55491   0.58413   0.15482   0.00000  Uiso   1.00
C328   C     0.86576   0.45560   0.37863   0.00000  Uiso   1.00
C329   C     0.86410   0.41641   0.43008   0.00000  Uiso   1.00
C330   C     0.85687   0.44957   0.48019   0.00000  Uiso   1.00
C331   C     0.84601   0.47904   0.57322   0.00000  Uiso   1.00
C332   C     0.95032   0.44142   0.29638   0.00000  Uiso   1.00
C333   C     0.01977   0.39031   0.27869   0.00000  Uiso   1.00
C334   C     0.08376   0.41153   0.25956   0.00000  Uiso   1.00
C335   C     0.20419   0.41899   0.22489   0.00000  Uiso   1.00
C336   C     0.86343   0.55834   0.31635   0.00000  Uiso   1.00
C337   C     0.79169   0.55024   0.27849   0.00000  Uiso   1.00
C338   C     0.72669   0.60432   0.24546   0.00000  Uiso   1.00
C339   C     0.66715   0.58608   0.21381   0.00000  Uiso   1.00
C340   C     0.86040   0.52543   0.37728   0.00000  Uiso   1.00
C341   C     0.85319   0.55865   0.42731   0.00000  Uiso   1.00
C342   C     0.85151   0.51953   0.47883   0.00000  Uiso   1.00
C343   C     0.94497   0.51125   0.29502   0.00000  Uiso   1.00
C344   C     0.00886   0.53255   0.27592   0.00000  Uiso   1.00
C345   C     0.07840   0.48149   0.25820   0.00000  Uiso   1.00
H346   H     0.87746   0.37542   0.31992   0.00000  Uiso   1.00
H347   H     0.74176   0.40804   0.24930   0.00000  Uiso   1.00
H348   H     0.86825   0.36238   0.43112   0.00000  Uiso   1.00
H349   H     0.02390   0.33629   0.27975   0.00000  Uiso   1.00
H350   H     0.58892   0.47502   0.17042   0.00000  Uiso   1.00
H351   H     0.85567   0.37872   0.55381   0.00000  Uiso   1.00
H352   H     0.18388   0.32369   0.23462   0.00000  Uiso   1.00
H353   H     0.85927   0.61270   0.31530   0.00000  Uiso   1.00
H354   H     0.72256   0.65835   0.24442   0.00000  Uiso   1.00
H355   H     0.84905   0.61268   0.42625   0.00000  Uiso   1.00
H356   H     0.00470   0.58659   0.27488   0.00000  Uiso   1.00
H357   H     0.57334   0.67818   0.16647   0.00000  Uiso   1.00
H358   H     0.84009   0.58187   0.54985   0.00000  Uiso   1.00
H359   H     0.16830   0.52685   0.23066   0.00000  Uiso   1.00
O360   O     0.49151   0.60235   0.12192   0.00000  Uiso   1.00
O361   O     0.84149   0.47600   0.62491   0.00000  Uiso   1.00
O362   O     0.27209   0.40381   0.20613   0.00000  Uiso   1.00
N363   N     0.60402   0.51657   0.17921   0.00000  Uiso   1.00
N364   N     0.85340   0.42653   0.53765   0.00000  Uiso   1.00
N365   N     0.16027   0.37509   0.23925   0.00000  Uiso   1.00
N366   N     0.59564   0.62588   0.17708   0.00000  Uiso   1.00
N367   N     0.84502   0.53585   0.53552   0.00000  Uiso   1.00
N368   N     0.15188   0.48441   0.23712   0.00000  Uiso   1.00
C369   C     0.15899   0.69363   0.56537   0.00000  Uiso   1.00
C370   C     0.19739   0.65690   0.51395   0.00000  Uiso   1.00
C371   C     0.28191   0.63571   0.50397   0.00000  Uiso   1.00
C372   C     0.30445   0.60296   0.45445   0.00000  Uiso   1.00
C373   C     0.37319   0.54759   0.38042   0.00000  Uiso   1.00
C374   C     0.11504   0.64828   0.59462   0.00000  Uiso   1.00
C375   C     0.13031   0.61984   0.65248   0.00000  Uiso   1.00
C376   C     0.08351   0.57984   0.67087   0.00000  Uiso   1.00
C377   C     0.02435   0.51112   0.72211   0.00000  Uiso   1.00
C378   C     0.08899   0.76167   0.53942   0.00000  Uiso   1.00
C379   C     0.08233   0.82858   0.55088   0.00000  Uiso   1.00
C380   C     0.01359   0.88405   0.52281   0.00000  Uiso   1.00
C381   C     0.91398   0.99140   0.48835   0.00000  Uiso   1.00
C382   C     0.04873   0.67315   0.49516   0.00000  Uiso   1.00
C383   C     0.13750   0.64578   0.47581   0.00000  Uiso   1.00
C384   C     0.15991   0.61305   0.42629   0.00000  Uiso   1.00
C385   C     0.24445   0.59182   0.41625   0.00000  Uiso   1.00
C386   C     0.05515   0.63715   0.55649   0.00000  Uiso   1.00
C387   C     0.00831   0.59719   0.57480   0.00000  Uiso   1.00
C388   C     0.02351   0.56870   0.63267   0.00000  Uiso   1.00
C389   C     0.02909   0.75055   0.50129   0.00000  Uiso   1.00
C390   C     0.96034   0.80592   0.47320   0.00000  Uiso   1.00
C391   C     0.95359   0.87291   0.48461   0.00000  Uiso   1.00
H392   H     0.20562   0.70229   0.59506   0.00000  Uiso   1.00
H393   H     0.32824   0.64432   0.53350   0.00000  Uiso   1.00
H394   H     0.17665   0.62847   0.68198   0.00000  Uiso   1.00
H395   H     0.12869   0.83717   0.58040   0.00000  Uiso   1.00
H396   H     0.43778   0.57513   0.44844   0.00000  Uiso   1.00
H397   H     0.11813   0.54171   0.76153   0.00000  Uiso   1.00
H398   H     0.01700   0.98181   0.54732   0.00000  Uiso   1.00
H399   H     0.00210   0.66449   0.46547   0.00000  Uiso   1.00
H400   H     0.11355   0.60445   0.39679   0.00000  Uiso   1.00
H401   H     0.96197   0.58859   0.54528   0.00000  Uiso   1.00
H402   H     0.91401   0.79730   0.44369   0.00000  Uiso   1.00
H403   H     0.26354   0.54277   0.33748   0.00000  Uiso   1.00
H404   H     0.94388   0.50935   0.65058   0.00000  Uiso   1.00
H405   H     0.84275   0.94945   0.43637   0.00000  Uiso   1.00
O406   O     0.42766   0.52012   0.35013   0.00000  Uiso   1.00
O407   O     0.00827   0.47629   0.76090   0.00000  Uiso   1.00
O408   O     0.87559   0.05368   0.47986   0.00000  Uiso   1.00
N409   N     0.38148   0.57577   0.43174   0.00000  Uiso   1.00
N410   N     0.08263   0.54451   0.72447   0.00000  Uiso   1.00
N411   N     0.98806   0.95597   0.52421   0.00000  Uiso   1.00
N412   N     0.28771   0.55835   0.37204   0.00000  Uiso   1.00
N413   N     0.98887   0.52710   0.66476   0.00000  Uiso   1.00
N414   N     0.89430   0.93855   0.46451   0.00000  Uiso   1.00
C415   C     0.06951   0.85884   0.80855   0.00000  Uiso   1.00
C416   C     0.14547   0.88117   0.80225   0.00000  Uiso   1.00
C417   C     0.22665   0.83717   0.79506   0.00000  Uiso   1.00
C418   C     0.28736   0.86773   0.79013   0.00000  Uiso   1.00
C419   C     0.40833   0.89143   0.78005   0.00000  Uiso   1.00
C420   C     0.03593   0.88251   0.86560   0.00000  Uiso   1.00
C421   C     0.02502   0.83965   0.91166   0.00000  Uiso   1.00
C422   C     0.99351   0.87134   0.96005   0.00000  Uiso   1.00
C423   C     0.94437   0.89715   0.04829   0.00000  Uiso   1.00
C424   C     0.00207   0.90366   0.76056   0.00000  Uiso   1.00
C425   C     0.96265   0.87858   0.71831   0.00000  Uiso   1.00
C426   C     0.90261   0.92808   0.67827   0.00000  Uiso   1.00
C427   C     0.80090   0.98671   0.60342   0.00000  Uiso   1.00
C428   C     0.03295   0.99135   0.81257   0.00000  Uiso   1.00
C429   C     0.12561   0.95314   0.80443   0.00000  Uiso   1.00
C430   C     0.18620   0.98378   0.79951   0.00000  Uiso   1.00
C431   C     0.26746   0.93983   0.79231   0.00000  Uiso   1.00
C432   C     0.01608   0.95448   0.86778   0.00000  Uiso   1.00
C433   C     0.98457   0.98625   0.91611   0.00000  Uiso   1.00
C434   C     0.97361   0.94344   0.96224   0.00000  Uiso   1.00
C435   C     0.98221   0.97563   0.76274   0.00000  Uiso   1.00
C436   C     0.92221   0.02518   0.72276   0.00000  Uiso   1.00
C437   C     0.88272   0.00018   0.68046   0.00000  Uiso   1.00
H438   H     0.08496   0.80281   0.80685   0.00000  Uiso   1.00
H439   H     0.24200   0.78147   0.79338   0.00000  Uiso   1.00
H440   H     0.04038   0.78395   0.90996   0.00000  Uiso   1.00
H441   H     0.97804   0.82288   0.71663   0.00000  Uiso   1.00
H442   H     0.40734   0.78955   0.77943   0.00000  Uiso   1.00
H443   H     0.98221   0.79478   0.02523   0.00000  Uiso   1.00
H444   H     0.85073   0.87686   0.61757   0.00000  Uiso   1.00
H445   H     0.01748   0.04739   0.81427   0.00000  Uiso   1.00
H446   H     0.17082   0.03947   0.80120   0.00000  Uiso   1.00
H447   H     0.96920   0.04195   0.91778   0.00000  Uiso   1.00
H448   H     0.90686   0.08087   0.72446   0.00000  Uiso   1.00
H449   H     0.34957   0.99895   0.78578   0.00000  Uiso   1.00
H450   H     0.92443   0.00418   0.03158   0.00000  Uiso   1.00
H451   H     0.79296   0.08626   0.62392   0.00000  Uiso   1.00
O452   O     0.48055   0.88463   0.77389   0.00000  Uiso   1.00
O453   O     0.92277   0.89149   0.09637   0.00000  Uiso   1.00
O454   O     0.75029   0.99917   0.56153   0.00000  Uiso   1.00
N455   N     0.37270   0.83992   0.78270   0.00000  Uiso   1.00
N456   N     0.97524   0.84481   0.01252   0.00000  Uiso   1.00
N457   N     0.85230   0.92155   0.63140   0.00000  Uiso   1.00
N458   N     0.34161   0.95260   0.78612   0.00000  Uiso   1.00
N459   N     0.94415   0.95749   0.01594   0.00000  Uiso   1.00
N460   N     0.82122   0.03422   0.63482   0.00000  Uiso   1.00
C461   C     0.63625   0.30531   0.79804   0.00000  Uiso   1.00
C462   C     0.63310   0.27056   0.74294   0.00000  Uiso   1.00
C463   C     0.58314   0.30258   0.69151   0.00000  Uiso   1.00
C464   C     0.58935   0.26183   0.64608   0.00000  Uiso   1.00
C465   C     0.57617   0.21854   0.55965   0.00000  Uiso   1.00
C466   C     0.61561   0.26034   0.84632   0.00000  Uiso   1.00
C467   C     0.55095   0.28378   0.88180   0.00000  Uiso   1.00
C468   C     0.54244   0.23443   0.92341   0.00000  Uiso   1.00
C469   C     0.50215   0.17529   0.99749   0.00000  Uiso   1.00
C470   C     0.72847   0.29642   0.81226   0.00000  Uiso   1.00
C471   C     0.75871   0.35020   0.81913   0.00000  Uiso   1.00
C472   C     0.84522   0.33123   0.83207   0.00000  Uiso   1.00
C473   C     0.98016   0.32812   0.85328   0.00000  Uiso   1.00
C474   C     0.73611   0.17600   0.80883   0.00000  Uiso   1.00
C475   C     0.68734   0.20032   0.74881   0.00000  Uiso   1.00
C476   C     0.69363   0.15951   0.70345   0.00000  Uiso   1.00
C477   C     0.64369   0.19147   0.65195   0.00000  Uiso   1.00
C478   C     0.66985   0.19010   0.85218   0.00000  Uiso   1.00
C479   C     0.66144   0.14071   0.89374   0.00000  Uiso   1.00
C480   C     0.59678   0.16407   0.92928   0.00000  Uiso   1.00
C481   C     0.78271   0.22619   0.81812   0.00000  Uiso   1.00
C482   C     0.86919   0.20713   0.83106   0.00000  Uiso   1.00
C483   C     0.89956   0.26087   0.83794   0.00000  Uiso   1.00
H484   H     0.59402   0.35999   0.79348   0.00000  Uiso   1.00
H485   H     0.54117   0.35694   0.68699   0.00000  Uiso   1.00
H486   H     0.50899   0.33814   0.87726   0.00000  Uiso   1.00
H487   H     0.71672   0.40455   0.81459   0.00000  Uiso   1.00
H488   H     0.50647   0.32256   0.57152   0.00000  Uiso   1.00
H489   H     0.43864   0.28293   0.97273   0.00000  Uiso   1.00
H490   H     0.87667   0.42297   0.84057   0.00000  Uiso   1.00
H491   H     0.77834   0.12131   0.81340   0.00000  Uiso   1.00
H492   H     0.73561   0.10516   0.70800   0.00000  Uiso   1.00
H493   H     0.70342   0.08636   0.89827   0.00000  Uiso   1.00
H494   H     0.91115   0.15277   0.83560   0.00000  Uiso   1.00
H495   H     0.66428   0.11821   0.58857   0.00000  Uiso   1.00
H496   H     0.59645   0.07858   0.98978   0.00000  Uiso   1.00
H497   H     0.03447   0.21862   0.85762   0.00000  Uiso   1.00
O498   O     0.55391   0.21406   0.51035   0.00000  Uiso   1.00
O499   O     0.46493   0.16207   0.03673   0.00000  Uiso   1.00
O500   O     0.03961   0.34580   0.86334   0.00000  Uiso   1.00
N501   N     0.54949   0.27669   0.58999   0.00000  Uiso   1.00
N502   N     0.48606   0.23964   0.96509   0.00000  Uiso   1.00
N503   N     0.89558   0.37056   0.84155   0.00000  Uiso   1.00
N504   N     0.63440   0.16673   0.59917   0.00000  Uiso   1.00
N505   N     0.57098   0.12968   0.97427   0.00000  Uiso   1.00
N506   N     0.98049   0.26060   0.85073   0.00000  Uiso   1.00
C507   C     0.15162   0.28019   0.05408   0.00000  Uiso   1.00
C508   C     0.06603   0.33251   0.02757   0.00000  Uiso   1.00
C509   C     0.04329   0.40485   0.01961   0.00000  Uiso   1.00
C510   C     0.96199   0.44358   0.99461   0.00000  Uiso   1.00
C511   C     0.83766   0.52976   0.95597   0.00000  Uiso   1.00
C512   C     0.13359   0.23712   0.10503   0.00000  Uiso   1.00
C513   C     0.16768   0.22925   0.16219   0.00000  Uiso   1.00
C514   C     0.14327   0.18767   0.20239   0.00000  Uiso   1.00
C515   C     0.12388   0.12571   0.28399   0.00000  Uiso   1.00
C516   C     0.18401   0.22993   0.00893   0.00000  Uiso   1.00
C517   C     0.26050   0.21600   0.98531   0.00000  Uiso   1.00
C518   C     0.27855   0.16836   0.94462   0.00000  Uiso   1.00
C519   C     0.33745   0.09524   0.87702   0.00000  Uiso   1.00
C520   C     0.04769   0.22033   0.02383   0.00000  Uiso   1.00
C521   C     0.00957   0.29999   0.01114   0.00000  Uiso   1.00
C522   C     0.92830   0.33862   0.98614   0.00000  Uiso   1.00
C523   C     0.90544   0.41101   0.97815   0.00000  Uiso   1.00
C524   C     0.07714   0.20460   0.08860   0.00000  Uiso   1.00
C525   C     0.05268   0.16302   0.12872   0.00000  Uiso   1.00
C526   C     0.08671   0.15509   0.18593   0.00000  Uiso   1.00
C527   C     0.12756   0.19742   0.99250   0.00000  Uiso   1.00
C528   C     0.14550   0.14978   0.95184   0.00000  Uiso   1.00
C529   C     0.22200   0.13578   0.92816   0.00000  Uiso   1.00
H530   H     0.19557   0.30550   0.06688   0.00000  Uiso   1.00
H531   H     0.08699   0.42999   0.03234   0.00000  Uiso   1.00
H532   H     0.21137   0.25441   0.17489   0.00000  Uiso   1.00
H533   H     0.30417   0.24117   0.99804   0.00000  Uiso   1.00
H534   H     0.94170   0.55367   0.98682   0.00000  Uiso   1.00
H535   H     0.20397   0.18343   0.28739   0.00000  Uiso   1.00
H536   H     0.39968   0.15552   0.91447   0.00000  Uiso   1.00
H537   H     0.00373   0.19501   0.01104   0.00000  Uiso   1.00
H538   H     0.88462   0.31344   0.97343   0.00000  Uiso   1.00
H539   H     0.00900   0.13786   0.11599   0.00000  Uiso   1.00
H540   H     0.10180   0.12462   0.93913   0.00000  Uiso   1.00
H541   H     0.77745   0.45908   0.93901   0.00000  Uiso   1.00
H542   H     0.03973   0.08883   0.23958   0.00000  Uiso   1.00
H543   H     0.23542   0.06092   0.86666   0.00000  Uiso   1.00
O544   O     0.78467   0.58628   0.93920   0.00000  Uiso   1.00
O545   O     0.12878   0.10052   0.33354   0.00000  Uiso   1.00
O546   O     0.38553   0.06390   0.84427   0.00000  Uiso   1.00
N547   N     0.91940   0.51516   0.98072   0.00000  Uiso   1.00
N548   N     0.16460   0.16901   0.26174   0.00000  Uiso   1.00
N549   N     0.34757   0.14290   0.91310   0.00000  Uiso   1.00
N550   N     0.83102   0.46426   0.95499   0.00000  Uiso   1.00
N551   N     0.07622   0.11811   0.23601   0.00000  Uiso   1.00
N552   N     0.25919   0.09200   0.88737   0.00000  Uiso   1.00
