data_job_04188
_audit_creation_date              2018-12-19
_audit_creation_method            'Materials Studio'
_symmetry_space_group_name_H-M    'P1'
_symmetry_Int_Tables_number       1
_symmetry_cell_setting            triclinic
loop_
_symmetry_equiv_pos_as_xyz
  x,y,z
_cell_length_a                    14.8021
_cell_length_b                    10.6874
_cell_length_c                    21.1175
_cell_angle_alpha                 90.0000
_cell_angle_beta                  116.9014
_cell_angle_gamma                 90.0000
loop_
_atom_site_label
_atom_site_type_symbol
_atom_site_fract_x
_atom_site_fract_y
_atom_site_fract_z
_atom_site_U_iso_or_equiv
_atom_site_adp_type
_atom_site_occupancy
C1     C     0.71637   0.99097   0.38351   0.00000  Uiso   1.00
C2     C     0.60845   0.03677   0.33803   0.00000  Uiso   1.00
C3     C     0.54071   0.98763   0.27288   0.00000  Uiso   1.00
C4     C     0.44555   0.04263   0.23963   0.00000  Uiso   1.00
C5     C     0.28200   0.09849   0.16431   0.00000  Uiso   1.00
C6     C     0.78464   0.10455   0.39570   0.00000  Uiso   1.00
C7     C     0.86505   0.11238   0.37904   0.00000  Uiso   1.00
C8     C     0.91821   0.22444   0.39435   0.00000  Uiso   1.00
C9     C     0.02826   0.38549   0.40861   0.00000  Uiso   1.00
C10    C     0.72276   0.95843   0.45573   0.00000  Uiso   1.00
C11    C     0.75116   0.84342   0.48955   0.00000  Uiso   1.00
C12    C     0.75225   0.83246   0.55541   0.00000  Uiso   1.00
C13    C     0.76622   0.76665   0.66287   0.00000  Uiso   1.00
C14    C     0.66783   0.17603   0.44033   0.00000  Uiso   1.00
C15    C     0.58209   0.13729   0.36890   0.00000  Uiso   1.00
C16    C     0.48700   0.19238   0.33574   0.00000  Uiso   1.00
C17    C     0.41913   0.14333   0.27055   0.00000  Uiso   1.00
C18    C     0.75828   0.20507   0.42656   0.00000  Uiso   1.00
C19    C     0.81134   0.31713   0.44191   0.00000  Uiso   1.00
C20    C     0.89180   0.32514   0.42527   0.00000  Uiso   1.00
C21    C     0.69639   0.05895   0.48659   0.00000  Uiso   1.00
C22    C     0.69745   0.04817   0.55241   0.00000  Uiso   1.00
C23    C     0.72584   0.93316   0.58633   0.00000  Uiso   1.00
H24    H     0.73690   0.91272   0.35948   0.00000  Uiso   1.00
H25    H     0.56114   0.90985   0.24901   0.00000  Uiso   1.00
H26    H     0.88544   0.03458   0.35517   0.00000  Uiso   1.00
H27    H     0.77156   0.76566   0.46565   0.00000  Uiso   1.00
H28    H     0.35467   0.95102   0.14013   0.00000  Uiso   1.00
H29    H     0.03848   0.21400   0.36399   0.00000  Uiso   1.00
H30    H     0.79836   0.64693   0.59697   0.00000  Uiso   1.00
H31    H     0.64731   0.25430   0.46436   0.00000  Uiso   1.00
H32    H     0.46663   0.27016   0.35964   0.00000  Uiso   1.00
H33    H     0.79092   0.39489   0.46579   0.00000  Uiso   1.00
H34    H     0.67705   0.12597   0.57628   0.00000  Uiso   1.00
H35    H     0.27796   0.24347   0.22991   0.00000  Uiso   1.00
H36    H     0.96178   0.50645   0.45378   0.00000  Uiso   1.00
H37    H     0.72165   0.93938   0.68676   0.00000  Uiso   1.00
O38    O     0.19908   0.10155   0.11423   0.00000  Uiso   1.00
O39    O     0.09623   0.44656   0.40794   0.00000  Uiso   1.00
O40    O     0.78119   0.70258   0.71361   0.00000  Uiso   1.00
N41    N     0.36140   0.01765   0.17564   0.00000  Uiso   1.00
N42    N     0.00072   0.26354   0.38492   0.00000  Uiso   1.00
N43    N     0.77625   0.73338   0.60275   0.00000  Uiso   1.00
N44    N     0.32012   0.17502   0.22395   0.00000  Uiso   1.00
N45    N     0.95944   0.42090   0.43323   0.00000  Uiso   1.00
N46    N     0.73497   0.89074   0.65107   0.00000  Uiso   1.00
C47    C     0.28363   0.49097   0.11649   0.00000  Uiso   1.00
C48    C     0.39155   0.53677   0.16197   0.00000  Uiso   1.00
C49    C     0.45929   0.48763   0.22712   0.00000  Uiso   1.00
C50    C     0.55445   0.54263   0.26037   0.00000  Uiso   1.00
C51    C     0.71800   0.59849   0.33569   0.00000  Uiso   1.00
C52    C     0.21536   0.60455   0.10430   0.00000  Uiso   1.00
C53    C     0.13495   0.61238   0.12096   0.00000  Uiso   1.00
C54    C     0.08179   0.72444   0.10565   0.00000  Uiso   1.00
C55    C     0.97174   0.88549   0.09139   0.00000  Uiso   1.00
C56    C     0.27724   0.45843   0.04427   0.00000  Uiso   1.00
C57    C     0.24884   0.34342   0.01045   0.00000  Uiso   1.00
C58    C     0.24775   0.33246   0.94459   0.00000  Uiso   1.00
C59    C     0.23378   0.26665   0.83713   0.00000  Uiso   1.00
C60    C     0.33217   0.67603   0.05967   0.00000  Uiso   1.00
C61    C     0.41791   0.63729   0.13110   0.00000  Uiso   1.00
C62    C     0.51300   0.69238   0.16426   0.00000  Uiso   1.00
C63    C     0.58087   0.64333   0.22945   0.00000  Uiso   1.00
C64    C     0.24172   0.70507   0.07344   0.00000  Uiso   1.00
C65    C     0.18866   0.81713   0.05809   0.00000  Uiso   1.00
C66    C     0.10820   0.82514   0.07473   0.00000  Uiso   1.00
C67    C     0.30361   0.55895   0.01341   0.00000  Uiso   1.00
C68    C     0.30255   0.54817   0.94759   0.00000  Uiso   1.00
C69    C     0.27416   0.43316   0.91367   0.00000  Uiso   1.00
H70    H     0.26310   0.41272   0.14052   0.00000  Uiso   1.00
H71    H     0.43886   0.40985   0.25099   0.00000  Uiso   1.00
H72    H     0.11456   0.53458   0.14483   0.00000  Uiso   1.00
H73    H     0.22844   0.26566   0.03435   0.00000  Uiso   1.00
H74    H     0.64533   0.45102   0.35987   0.00000  Uiso   1.00
H75    H     0.96152   0.71400   0.13601   0.00000  Uiso   1.00
H76    H     0.20164   0.14693   0.90303   0.00000  Uiso   1.00
H77    H     0.35269   0.75430   0.03564   0.00000  Uiso   1.00
H78    H     0.53337   0.77016   0.14036   0.00000  Uiso   1.00
H79    H     0.20908   0.89489   0.03421   0.00000  Uiso   1.00
H80    H     0.32295   0.62597   0.92372   0.00000  Uiso   1.00
H81    H     0.72204   0.74347   0.27009   0.00000  Uiso   1.00
H82    H     0.03822   0.00645   0.04622   0.00000  Uiso   1.00
H83    H     0.27835   0.43938   0.81324   0.00000  Uiso   1.00
O84    O     0.80092   0.60155   0.38577   0.00000  Uiso   1.00
O85    O     0.90377   0.94656   0.09206   0.00000  Uiso   1.00
O86    O     0.21881   0.20258   0.78639   0.00000  Uiso   1.00
N87    N     0.63860   0.51765   0.32436   0.00000  Uiso   1.00
N88    N     0.99928   0.76354   0.11508   0.00000  Uiso   1.00
N89    N     0.22375   0.23338   0.89725   0.00000  Uiso   1.00
N90    N     0.67988   0.67502   0.27605   0.00000  Uiso   1.00
N91    N     0.04056   0.92090   0.06677   0.00000  Uiso   1.00
N92    N     0.26503   0.39074   0.84893   0.00000  Uiso   1.00
C93    C     0.28363   0.00903   0.61649   0.00000  Uiso   1.00
C94    C     0.39155   0.96323   0.66197   0.00000  Uiso   1.00
C95    C     0.45929   0.01237   0.72712   0.00000  Uiso   1.00
C96    C     0.55445   0.95737   0.76037   0.00000  Uiso   1.00
C97    C     0.71800   0.90151   0.83569   0.00000  Uiso   1.00
C98    C     0.21536   0.89545   0.60430   0.00000  Uiso   1.00
C99    C     0.13495   0.88762   0.62096   0.00000  Uiso   1.00
C100   C     0.08179   0.77556   0.60565   0.00000  Uiso   1.00
C101   C     0.97174   0.61451   0.59139   0.00000  Uiso   1.00
C102   C     0.27724   0.04157   0.54427   0.00000  Uiso   1.00
C103   C     0.24884   0.15658   0.51045   0.00000  Uiso   1.00
C104   C     0.24775   0.16754   0.44459   0.00000  Uiso   1.00
C105   C     0.23378   0.23335   0.33713   0.00000  Uiso   1.00
C106   C     0.33217   0.82397   0.55967   0.00000  Uiso   1.00
C107   C     0.41791   0.86271   0.63110   0.00000  Uiso   1.00
C108   C     0.51300   0.80762   0.66426   0.00000  Uiso   1.00
C109   C     0.58087   0.85667   0.72945   0.00000  Uiso   1.00
C110   C     0.24172   0.79493   0.57344   0.00000  Uiso   1.00
C111   C     0.18866   0.68287   0.55809   0.00000  Uiso   1.00
C112   C     0.10820   0.67486   0.57473   0.00000  Uiso   1.00
C113   C     0.30361   0.94105   0.51341   0.00000  Uiso   1.00
C114   C     0.30255   0.95183   0.44759   0.00000  Uiso   1.00
C115   C     0.27416   0.06684   0.41367   0.00000  Uiso   1.00
H116   H     0.26310   0.08728   0.64052   0.00000  Uiso   1.00
H117   H     0.43886   0.09015   0.75099   0.00000  Uiso   1.00
H118   H     0.11456   0.96542   0.64483   0.00000  Uiso   1.00
H119   H     0.22844   0.23434   0.53435   0.00000  Uiso   1.00
H120   H     0.64533   0.04898   0.85987   0.00000  Uiso   1.00
H121   H     0.96152   0.78600   0.63601   0.00000  Uiso   1.00
H122   H     0.20164   0.35307   0.40303   0.00000  Uiso   1.00
H123   H     0.35269   0.74570   0.53564   0.00000  Uiso   1.00
H124   H     0.53337   0.72984   0.64036   0.00000  Uiso   1.00
H125   H     0.20908   0.60511   0.53421   0.00000  Uiso   1.00
H126   H     0.32295   0.87403   0.42372   0.00000  Uiso   1.00
H127   H     0.72204   0.75653   0.77009   0.00000  Uiso   1.00
H128   H     0.03822   0.49355   0.54622   0.00000  Uiso   1.00
H129   H     0.27835   0.06062   0.31324   0.00000  Uiso   1.00
O130   O     0.80092   0.89845   0.88577   0.00000  Uiso   1.00
O131   O     0.90377   0.55344   0.59206   0.00000  Uiso   1.00
O132   O     0.21881   0.29742   0.28639   0.00000  Uiso   1.00
N133   N     0.63860   0.98235   0.82436   0.00000  Uiso   1.00
N134   N     0.99928   0.73646   0.61508   0.00000  Uiso   1.00
N135   N     0.22375   0.26662   0.39725   0.00000  Uiso   1.00
N136   N     0.67988   0.82498   0.77605   0.00000  Uiso   1.00
N137   N     0.04056   0.57910   0.56677   0.00000  Uiso   1.00
N138   N     0.26503   0.10926   0.34893   0.00000  Uiso   1.00
C139   C     0.71637   0.50903   0.88351   0.00000  Uiso   1.00
C140   C     0.60845   0.46323   0.83803   0.00000  Uiso   1.00
C141   C     0.54071   0.51237   0.77288   0.00000  Uiso   1.00
C142   C     0.44555   0.45737   0.73963   0.00000  Uiso   1.00
C143   C     0.28200   0.40151   0.66431   0.00000  Uiso   1.00
C144   C     0.78464   0.39545   0.89570   0.00000  Uiso   1.00
C145   C     0.86505   0.38762   0.87904   0.00000  Uiso   1.00
C146   C     0.91821   0.27556   0.89435   0.00000  Uiso   1.00
C147   C     0.02826   0.11451   0.90861   0.00000  Uiso   1.00
C148   C     0.72276   0.54157   0.95573   0.00000  Uiso   1.00
C149   C     0.75116   0.65658   0.98955   0.00000  Uiso   1.00
C150   C     0.75225   0.66754   0.05541   0.00000  Uiso   1.00
C151   C     0.76622   0.73335   0.16287   0.00000  Uiso   1.00
C152   C     0.66783   0.32397   0.94033   0.00000  Uiso   1.00
C153   C     0.58209   0.36271   0.86890   0.00000  Uiso   1.00
C154   C     0.48700   0.30762   0.83574   0.00000  Uiso   1.00
C155   C     0.41913   0.35667   0.77055   0.00000  Uiso   1.00
C156   C     0.75828   0.29493   0.92656   0.00000  Uiso   1.00
C157   C     0.81134   0.18287   0.94191   0.00000  Uiso   1.00
C158   C     0.89180   0.17486   0.92527   0.00000  Uiso   1.00
C159   C     0.69639   0.44105   0.98659   0.00000  Uiso   1.00
C160   C     0.69745   0.45183   0.05241   0.00000  Uiso   1.00
C161   C     0.72584   0.56684   0.08633   0.00000  Uiso   1.00
H162   H     0.73690   0.58728   0.85948   0.00000  Uiso   1.00
H163   H     0.56114   0.59015   0.74901   0.00000  Uiso   1.00
H164   H     0.88544   0.46542   0.85517   0.00000  Uiso   1.00
H165   H     0.77156   0.73434   0.96565   0.00000  Uiso   1.00
H166   H     0.35467   0.54898   0.64013   0.00000  Uiso   1.00
H167   H     0.03848   0.28600   0.86399   0.00000  Uiso   1.00
H168   H     0.79836   0.85307   0.09697   0.00000  Uiso   1.00
H169   H     0.64731   0.24570   0.96436   0.00000  Uiso   1.00
H170   H     0.46663   0.22984   0.85964   0.00000  Uiso   1.00
H171   H     0.79092   0.10511   0.96579   0.00000  Uiso   1.00
H172   H     0.67705   0.37403   0.07628   0.00000  Uiso   1.00
H173   H     0.27796   0.25653   0.72991   0.00000  Uiso   1.00
H174   H     0.96178   0.99355   0.95378   0.00000  Uiso   1.00
H175   H     0.72165   0.56062   0.18676   0.00000  Uiso   1.00
O176   O     0.19908   0.39845   0.61423   0.00000  Uiso   1.00
O177   O     0.09623   0.05344   0.90794   0.00000  Uiso   1.00
O178   O     0.78119   0.79742   0.21361   0.00000  Uiso   1.00
N179   N     0.36140   0.48235   0.67564   0.00000  Uiso   1.00
N180   N     0.00072   0.23646   0.88492   0.00000  Uiso   1.00
N181   N     0.77625   0.76662   0.10275   0.00000  Uiso   1.00
N182   N     0.32012   0.32498   0.72395   0.00000  Uiso   1.00
N183   N     0.95944   0.07910   0.93323   0.00000  Uiso   1.00
N184   N     0.73497   0.60926   0.15107   0.00000  Uiso   1.00
