data_job_03798
_audit_creation_date              2018-12-19
_audit_creation_method            'Materials Studio'
_symmetry_space_group_name_H-M    'P1'
_symmetry_Int_Tables_number       1
_symmetry_cell_setting            triclinic
loop_
_symmetry_equiv_pos_as_xyz
  x,y,z
_cell_length_a                    23.8649
_cell_length_b                    8.0758
_cell_length_c                    24.9946
_cell_angle_alpha                 90.0000
_cell_angle_beta                  149.9672
_cell_angle_gamma                 90.0000
loop_
_atom_site_label
_atom_site_type_symbol
_atom_site_fract_x
_atom_site_fract_y
_atom_site_fract_z
_atom_site_U_iso_or_equiv
_atom_site_adp_type
_atom_site_occupancy
C1     C     0.17283   0.34510   0.27142   0.00000  Uiso   1.00
C2     C     0.07129   0.34074   0.22445   0.00000  Uiso   1.00
C3     C     0.99212   0.21518   0.16131   0.00000  Uiso   1.00
C4     C     0.90547   0.23437   0.12618   0.00000  Uiso   1.00
C5     C     0.74886   0.20637   0.04908   0.00000  Uiso   1.00
C6     C     0.16360   0.50601   0.23217   0.00000  Uiso   1.00
C7     C     0.16206   0.51939   0.17554   0.00000  Uiso   1.00
C8     C     0.15313   0.67771   0.14693   0.00000  Uiso   1.00
C9     C     0.13992   0.90630   0.08188   0.00000  Uiso   1.00
C10    C     0.27461   0.36495   0.39182   0.00000  Uiso   1.00
C11    C     0.36642   0.25975   0.46943   0.00000  Uiso   1.00
C12    C     0.45096   0.29934   0.57524   0.00000  Uiso   1.00
C13    C     0.61009   0.30891   0.75807   0.00000  Uiso   1.00
C14    C     0.15973   0.60248   0.32131   0.00000  Uiso   1.00
C15    C     0.06418   0.48054   0.25154   0.00000  Uiso   1.00
C16    C     0.97762   0.49993   0.21650   0.00000  Uiso   1.00
C17    C     0.89834   0.37441   0.15333   0.00000  Uiso   1.00
C18    C     0.15649   0.64580   0.25926   0.00000  Uiso   1.00
C19    C     0.14756   0.80414   0.23073   0.00000  Uiso   1.00
C20    C     0.14600   0.81776   0.17407   0.00000  Uiso   1.00
C21    C     0.26749   0.50474   0.41892   0.00000  Uiso   1.00
C22    C     0.35191   0.54450   0.52462   0.00000  Uiso   1.00
C23    C     0.44383   0.43939   0.60238   0.00000  Uiso   1.00
H24    H     0.17837   0.23628   0.25032   0.00000  Uiso   1.00
H25    H     0.99765   0.10702   0.14035   0.00000  Uiso   1.00
H26    H     0.16758   0.41119   0.15460   0.00000  Uiso   1.00
H27    H     0.37189   0.15159   0.44844   0.00000  Uiso   1.00
H28    H     0.79413   0.02539   0.03035   0.00000  Uiso   1.00
H29    H     0.15247   0.66675   0.06040   0.00000  Uiso   1.00
H30    H     0.58331   0.11933   0.68003   0.00000  Uiso   1.00
H31    H     0.15419   0.71132   0.34240   0.00000  Uiso   1.00
H32    H     0.97214   0.60813   0.23748   0.00000  Uiso   1.00
H33    H     0.14206   0.91230   0.25172   0.00000  Uiso   1.00
H34    H     0.34638   0.65270   0.54556   0.00000  Uiso   1.00
H35    H     0.77342   0.43211   0.10918   0.00000  Uiso   1.00
H36    H     0.13176   0.07347   0.13924   0.00000  Uiso   1.00
H37    H     0.56260   0.52606   0.75886   0.00000  Uiso   1.00
O38    O     0.66443   0.15232   0.99905   0.00000  Uiso   1.00
O39    O     0.13458   0.99376   0.03851   0.00000  Uiso   1.00
O40    O     0.69983   0.27556   0.85143   0.00000  Uiso   1.00
N41    N     0.81425   0.13526   0.06332   0.00000  Uiso   1.00
N42    N     0.14926   0.73489   0.09140   0.00000  Uiso   1.00
N43    N     0.55207   0.22312   0.67070   0.00000  Uiso   1.00
N44    N     0.80311   0.35411   0.10573   0.00000  Uiso   1.00
N45    N     0.13812   0.95374   0.13382   0.00000  Uiso   1.00
N46    N     0.54093   0.44198   0.71312   0.00000  Uiso   1.00
C47    C     0.67283   0.84510   0.27142   0.00000  Uiso   1.00
C48    C     0.57129   0.84074   0.22445   0.00000  Uiso   1.00
C49    C     0.49212   0.71518   0.16131   0.00000  Uiso   1.00
C50    C     0.40547   0.73437   0.12618   0.00000  Uiso   1.00
C51    C     0.24886   0.70637   0.04908   0.00000  Uiso   1.00
C52    C     0.66360   0.00601   0.23217   0.00000  Uiso   1.00
C53    C     0.66206   0.01939   0.17554   0.00000  Uiso   1.00
C54    C     0.65313   0.17771   0.14693   0.00000  Uiso   1.00
C55    C     0.63992   0.40630   0.08188   0.00000  Uiso   1.00
C56    C     0.77461   0.86495   0.39182   0.00000  Uiso   1.00
C57    C     0.86642   0.75975   0.46943   0.00000  Uiso   1.00
C58    C     0.95096   0.79934   0.57524   0.00000  Uiso   1.00
C59    C     0.11009   0.80891   0.75807   0.00000  Uiso   1.00
C60    C     0.65973   0.10248   0.32131   0.00000  Uiso   1.00
C61    C     0.56418   0.98054   0.25154   0.00000  Uiso   1.00
C62    C     0.47762   0.99993   0.21650   0.00000  Uiso   1.00
C63    C     0.39834   0.87441   0.15333   0.00000  Uiso   1.00
C64    C     0.65649   0.14580   0.25926   0.00000  Uiso   1.00
C65    C     0.64756   0.30414   0.23073   0.00000  Uiso   1.00
C66    C     0.64600   0.31776   0.17407   0.00000  Uiso   1.00
C67    C     0.76749   0.00474   0.41892   0.00000  Uiso   1.00
C68    C     0.85191   0.04450   0.52462   0.00000  Uiso   1.00
C69    C     0.94383   0.93939   0.60238   0.00000  Uiso   1.00
H70    H     0.67837   0.73628   0.25032   0.00000  Uiso   1.00
H71    H     0.49765   0.60702   0.14035   0.00000  Uiso   1.00
H72    H     0.66758   0.91119   0.15460   0.00000  Uiso   1.00
H73    H     0.87189   0.65159   0.44844   0.00000  Uiso   1.00
H74    H     0.29413   0.52539   0.03035   0.00000  Uiso   1.00
H75    H     0.65247   0.16675   0.06040   0.00000  Uiso   1.00
H76    H     0.08331   0.61933   0.68003   0.00000  Uiso   1.00
H77    H     0.65419   0.21132   0.34240   0.00000  Uiso   1.00
H78    H     0.47214   0.10813   0.23748   0.00000  Uiso   1.00
H79    H     0.64206   0.41230   0.25172   0.00000  Uiso   1.00
H80    H     0.84638   0.15270   0.54556   0.00000  Uiso   1.00
H81    H     0.27342   0.93211   0.10918   0.00000  Uiso   1.00
H82    H     0.63176   0.57347   0.13924   0.00000  Uiso   1.00
H83    H     0.06260   0.02606   0.75886   0.00000  Uiso   1.00
O84    O     0.16443   0.65232   0.99905   0.00000  Uiso   1.00
O85    O     0.63458   0.49376   0.03851   0.00000  Uiso   1.00
O86    O     0.19983   0.77556   0.85143   0.00000  Uiso   1.00
N87    N     0.31425   0.63526   0.06332   0.00000  Uiso   1.00
N88    N     0.64926   0.23489   0.09140   0.00000  Uiso   1.00
N89    N     0.05207   0.72312   0.67070   0.00000  Uiso   1.00
N90    N     0.30311   0.85411   0.10573   0.00000  Uiso   1.00
N91    N     0.63812   0.45374   0.13382   0.00000  Uiso   1.00
N92    N     0.04093   0.94198   0.71312   0.00000  Uiso   1.00
C93    C     0.82717   0.34510   0.72858   0.00000  Uiso   1.00
C94    C     0.92871   0.34074   0.77555   0.00000  Uiso   1.00
C95    C     0.00788   0.21518   0.83869   0.00000  Uiso   1.00
C96    C     0.09453   0.23437   0.87382   0.00000  Uiso   1.00
C97    C     0.25114   0.20637   0.95092   0.00000  Uiso   1.00
C98    C     0.83640   0.50601   0.76783   0.00000  Uiso   1.00
C99    C     0.83794   0.51939   0.82446   0.00000  Uiso   1.00
C100   C     0.84687   0.67771   0.85307   0.00000  Uiso   1.00
C101   C     0.86008   0.90630   0.91812   0.00000  Uiso   1.00
C102   C     0.72539   0.36495   0.60818   0.00000  Uiso   1.00
C103   C     0.63358   0.25975   0.53057   0.00000  Uiso   1.00
C104   C     0.54904   0.29934   0.42476   0.00000  Uiso   1.00
C105   C     0.38991   0.30891   0.24193   0.00000  Uiso   1.00
C106   C     0.84027   0.60248   0.67869   0.00000  Uiso   1.00
C107   C     0.93582   0.48054   0.74846   0.00000  Uiso   1.00
C108   C     0.02238   0.49993   0.78350   0.00000  Uiso   1.00
C109   C     0.10166   0.37441   0.84667   0.00000  Uiso   1.00
C110   C     0.84351   0.64580   0.74074   0.00000  Uiso   1.00
C111   C     0.85244   0.80414   0.76927   0.00000  Uiso   1.00
C112   C     0.85400   0.81776   0.82593   0.00000  Uiso   1.00
C113   C     0.73251   0.50474   0.58108   0.00000  Uiso   1.00
C114   C     0.64809   0.54450   0.47538   0.00000  Uiso   1.00
C115   C     0.55617   0.43939   0.39762   0.00000  Uiso   1.00
H116   H     0.82163   0.23628   0.74968   0.00000  Uiso   1.00
H117   H     0.00235   0.10702   0.85965   0.00000  Uiso   1.00
H118   H     0.83242   0.41119   0.84540   0.00000  Uiso   1.00
H119   H     0.62811   0.15159   0.55156   0.00000  Uiso   1.00
H120   H     0.20587   0.02539   0.96965   0.00000  Uiso   1.00
H121   H     0.84753   0.66675   0.93960   0.00000  Uiso   1.00
H122   H     0.41669   0.11933   0.31997   0.00000  Uiso   1.00
H123   H     0.84581   0.71132   0.65760   0.00000  Uiso   1.00
H124   H     0.02786   0.60813   0.76252   0.00000  Uiso   1.00
H125   H     0.85794   0.91230   0.74828   0.00000  Uiso   1.00
H126   H     0.65362   0.65270   0.45444   0.00000  Uiso   1.00
H127   H     0.22658   0.43211   0.89082   0.00000  Uiso   1.00
H128   H     0.86824   0.07347   0.86076   0.00000  Uiso   1.00
H129   H     0.43740   0.52606   0.24114   0.00000  Uiso   1.00
O130   O     0.33557   0.15232   0.00095   0.00000  Uiso   1.00
O131   O     0.86542   0.99376   0.96149   0.00000  Uiso   1.00
O132   O     0.30017   0.27556   0.14857   0.00000  Uiso   1.00
N133   N     0.18575   0.13526   0.93668   0.00000  Uiso   1.00
N134   N     0.85074   0.73489   0.90860   0.00000  Uiso   1.00
N135   N     0.44793   0.22312   0.32930   0.00000  Uiso   1.00
N136   N     0.19689   0.35411   0.89427   0.00000  Uiso   1.00
N137   N     0.86188   0.95374   0.86618   0.00000  Uiso   1.00
N138   N     0.45907   0.44198   0.28688   0.00000  Uiso   1.00
C139   C     0.32717   0.84510   0.72858   0.00000  Uiso   1.00
C140   C     0.42871   0.84074   0.77555   0.00000  Uiso   1.00
C141   C     0.50788   0.71518   0.83869   0.00000  Uiso   1.00
C142   C     0.59453   0.73437   0.87382   0.00000  Uiso   1.00
C143   C     0.75114   0.70637   0.95092   0.00000  Uiso   1.00
C144   C     0.33640   0.00601   0.76783   0.00000  Uiso   1.00
C145   C     0.33794   0.01939   0.82446   0.00000  Uiso   1.00
C146   C     0.34687   0.17771   0.85307   0.00000  Uiso   1.00
C147   C     0.36008   0.40630   0.91812   0.00000  Uiso   1.00
C148   C     0.22539   0.86495   0.60818   0.00000  Uiso   1.00
C149   C     0.13358   0.75975   0.53057   0.00000  Uiso   1.00
C150   C     0.04904   0.79934   0.42476   0.00000  Uiso   1.00
C151   C     0.88991   0.80891   0.24193   0.00000  Uiso   1.00
C152   C     0.34027   0.10248   0.67869   0.00000  Uiso   1.00
C153   C     0.43582   0.98054   0.74846   0.00000  Uiso   1.00
C154   C     0.52238   0.99993   0.78350   0.00000  Uiso   1.00
C155   C     0.60166   0.87441   0.84667   0.00000  Uiso   1.00
C156   C     0.34351   0.14580   0.74074   0.00000  Uiso   1.00
C157   C     0.35244   0.30414   0.76927   0.00000  Uiso   1.00
C158   C     0.35400   0.31776   0.82593   0.00000  Uiso   1.00
C159   C     0.23251   0.00474   0.58108   0.00000  Uiso   1.00
C160   C     0.14809   0.04450   0.47538   0.00000  Uiso   1.00
C161   C     0.05617   0.93939   0.39762   0.00000  Uiso   1.00
H162   H     0.32163   0.73628   0.74968   0.00000  Uiso   1.00
H163   H     0.50235   0.60702   0.85965   0.00000  Uiso   1.00
H164   H     0.33242   0.91119   0.84540   0.00000  Uiso   1.00
H165   H     0.12811   0.65159   0.55156   0.00000  Uiso   1.00
H166   H     0.70587   0.52539   0.96965   0.00000  Uiso   1.00
H167   H     0.34753   0.16675   0.93960   0.00000  Uiso   1.00
H168   H     0.91669   0.61933   0.31997   0.00000  Uiso   1.00
H169   H     0.34581   0.21132   0.65760   0.00000  Uiso   1.00
H170   H     0.52786   0.10813   0.76252   0.00000  Uiso   1.00
H171   H     0.35794   0.41230   0.74828   0.00000  Uiso   1.00
H172   H     0.15362   0.15270   0.45444   0.00000  Uiso   1.00
H173   H     0.72658   0.93211   0.89082   0.00000  Uiso   1.00
H174   H     0.36824   0.57347   0.86076   0.00000  Uiso   1.00
H175   H     0.93740   0.02606   0.24114   0.00000  Uiso   1.00
O176   O     0.83557   0.65232   0.00095   0.00000  Uiso   1.00
O177   O     0.36542   0.49376   0.96149   0.00000  Uiso   1.00
O178   O     0.80017   0.77556   0.14857   0.00000  Uiso   1.00
N179   N     0.68575   0.63526   0.93668   0.00000  Uiso   1.00
N180   N     0.35074   0.23489   0.90860   0.00000  Uiso   1.00
N181   N     0.94793   0.72312   0.32930   0.00000  Uiso   1.00
N182   N     0.69689   0.85411   0.89427   0.00000  Uiso   1.00
N183   N     0.36188   0.45374   0.86618   0.00000  Uiso   1.00
N184   N     0.95907   0.94198   0.28688   0.00000  Uiso   1.00
