data_job_00602
_audit_creation_date              2018-12-19
_audit_creation_method            'Materials Studio'
_symmetry_space_group_name_H-M    'P1'
_symmetry_Int_Tables_number       1
_symmetry_cell_setting            triclinic
loop_
_symmetry_equiv_pos_as_xyz
  x,y,z
_cell_length_a                    25.3133
_cell_length_b                    7.5233
_cell_length_c                    13.7399
_cell_angle_alpha                 90.0000
_cell_angle_beta                  90.0000
_cell_angle_gamma                 90.0000
loop_
_atom_site_label
_atom_site_type_symbol
_atom_site_fract_x
_atom_site_fract_y
_atom_site_fract_z
_atom_site_U_iso_or_equiv
_atom_site_adp_type
_atom_site_occupancy
C1     C     0.62724   0.92152   0.38308   0.00000  Uiso   1.00
C2     C     0.68130   0.84314   0.40662   0.00000  Uiso   1.00
C3     C     0.72679   0.93958   0.42640   0.00000  Uiso   1.00
C4     C     0.77231   0.84317   0.44620   0.00000  Uiso   1.00
C5     C     0.85627   0.74979   0.48270   0.00000  Uiso   1.00
C6     C     0.61126   0.84327   0.28502   0.00000  Uiso   1.00
C7     C     0.59784   0.93982   0.20258   0.00000  Uiso   1.00
C8     C     0.58438   0.84350   0.12002   0.00000  Uiso   1.00
C9     C     0.55955   0.75033   0.96777   0.00000  Uiso   1.00
C10    C     0.58912   0.84328   0.45758   0.00000  Uiso   1.00
C11    C     0.55707   0.93983   0.52020   0.00000  Uiso   1.00
C12    C     0.52497   0.84353   0.58291   0.00000  Uiso   1.00
C13    C     0.46577   0.75037   0.69858   0.00000  Uiso   1.00
C14    C     0.62719   0.57881   0.38306   0.00000  Uiso   1.00
C15    C     0.68128   0.65700   0.40660   0.00000  Uiso   1.00
C16    C     0.72674   0.56041   0.42638   0.00000  Uiso   1.00
C17    C     0.77228   0.65669   0.44619   0.00000  Uiso   1.00
C18    C     0.61123   0.65713   0.28501   0.00000  Uiso   1.00
C19    C     0.59778   0.56065   0.20256   0.00000  Uiso   1.00
C20    C     0.58435   0.65703   0.12001   0.00000  Uiso   1.00
C21    C     0.58909   0.65714   0.45757   0.00000  Uiso   1.00
C22    C     0.55702   0.56067   0.52019   0.00000  Uiso   1.00
C23    C     0.52494   0.65705   0.58290   0.00000  Uiso   1.00
H24    H     0.62726   0.06643   0.38308   0.00000  Uiso   1.00
H25    H     0.72680   0.08363   0.42639   0.00000  Uiso   1.00
H26    H     0.59786   0.08386   0.20261   0.00000  Uiso   1.00
H27    H     0.55710   0.08388   0.52019   0.00000  Uiso   1.00
H28    H     0.83715   0.02061   0.47437   0.00000  Uiso   1.00
H29    H     0.56525   0.02110   0.00253   0.00000  Uiso   1.00
H30    H     0.47932   0.02113   0.67220   0.00000  Uiso   1.00
H31    H     0.62717   0.43388   0.38305   0.00000  Uiso   1.00
H32    H     0.72670   0.41636   0.42637   0.00000  Uiso   1.00
H33    H     0.59776   0.41661   0.20258   0.00000  Uiso   1.00
H34    H     0.55701   0.41662   0.52016   0.00000  Uiso   1.00
H35    H     0.83707   0.47903   0.47435   0.00000  Uiso   1.00
H36    H     0.56518   0.47953   0.00250   0.00000  Uiso   1.00
H37    H     0.47924   0.47955   0.67218   0.00000  Uiso   1.00
O38    O     0.90259   0.74971   0.50282   0.00000  Uiso   1.00
O39    O     0.54587   0.75036   0.88378   0.00000  Uiso   1.00
O40    O     0.43313   0.75040   0.76238   0.00000  Uiso   1.00
N41    N     0.82347   0.89555   0.46844   0.00000  Uiso   1.00
N42    N     0.56927   0.89601   0.02729   0.00000  Uiso   1.00
N43    N     0.48892   0.89604   0.65336   0.00000  Uiso   1.00
N44    N     0.82343   0.60413   0.46843   0.00000  Uiso   1.00
N45    N     0.56923   0.60460   0.02727   0.00000  Uiso   1.00
N46    N     0.48888   0.60462   0.65335   0.00000  Uiso   1.00
C47    C     0.87276   0.07848   0.88308   0.00000  Uiso   1.00
C48    C     0.81870   0.15686   0.90662   0.00000  Uiso   1.00
C49    C     0.77321   0.06042   0.92640   0.00000  Uiso   1.00
C50    C     0.72769   0.15683   0.94620   0.00000  Uiso   1.00
C51    C     0.64373   0.25021   0.98270   0.00000  Uiso   1.00
C52    C     0.88874   0.15673   0.78502   0.00000  Uiso   1.00
C53    C     0.90216   0.06018   0.70258   0.00000  Uiso   1.00
C54    C     0.91562   0.15650   0.62002   0.00000  Uiso   1.00
C55    C     0.94045   0.24967   0.46777   0.00000  Uiso   1.00
C56    C     0.91088   0.15672   0.95758   0.00000  Uiso   1.00
C57    C     0.94293   0.06017   0.02020   0.00000  Uiso   1.00
C58    C     0.97503   0.15647   0.08291   0.00000  Uiso   1.00
C59    C     0.03423   0.24963   0.19858   0.00000  Uiso   1.00
C60    C     0.87281   0.42119   0.88306   0.00000  Uiso   1.00
C61    C     0.81872   0.34300   0.90660   0.00000  Uiso   1.00
C62    C     0.77326   0.43959   0.92638   0.00000  Uiso   1.00
C63    C     0.72772   0.34331   0.94619   0.00000  Uiso   1.00
C64    C     0.88877   0.34287   0.78501   0.00000  Uiso   1.00
C65    C     0.90222   0.43935   0.70256   0.00000  Uiso   1.00
C66    C     0.91565   0.34297   0.62001   0.00000  Uiso   1.00
C67    C     0.91091   0.34286   0.95757   0.00000  Uiso   1.00
C68    C     0.94298   0.43933   0.02019   0.00000  Uiso   1.00
C69    C     0.97506   0.34295   0.08290   0.00000  Uiso   1.00
H70    H     0.87274   0.93357   0.88308   0.00000  Uiso   1.00
H71    H     0.77320   0.91637   0.92639   0.00000  Uiso   1.00
H72    H     0.90214   0.91614   0.70261   0.00000  Uiso   1.00
H73    H     0.94290   0.91612   0.02019   0.00000  Uiso   1.00
H74    H     0.66285   0.97939   0.97437   0.00000  Uiso   1.00
H75    H     0.93475   0.97890   0.50253   0.00000  Uiso   1.00
H76    H     0.02068   0.97887   0.17220   0.00000  Uiso   1.00
H77    H     0.87283   0.56612   0.88305   0.00000  Uiso   1.00
H78    H     0.77330   0.58364   0.92637   0.00000  Uiso   1.00
H79    H     0.90224   0.58339   0.70258   0.00000  Uiso   1.00
H80    H     0.94299   0.58338   0.02016   0.00000  Uiso   1.00
H81    H     0.66293   0.52097   0.97435   0.00000  Uiso   1.00
H82    H     0.93482   0.52047   0.50250   0.00000  Uiso   1.00
H83    H     0.02076   0.52045   0.17218   0.00000  Uiso   1.00
O84    O     0.59741   0.25029   0.00282   0.00000  Uiso   1.00
O85    O     0.95413   0.24964   0.38378   0.00000  Uiso   1.00
O86    O     0.06687   0.24960   0.26238   0.00000  Uiso   1.00
N87    N     0.67653   0.10445   0.96844   0.00000  Uiso   1.00
N88    N     0.93073   0.10399   0.52729   0.00000  Uiso   1.00
N89    N     0.01108   0.10396   0.15336   0.00000  Uiso   1.00
N90    N     0.67657   0.39587   0.96843   0.00000  Uiso   1.00
N91    N     0.93077   0.39540   0.52727   0.00000  Uiso   1.00
N92    N     0.01112   0.39538   0.15335   0.00000  Uiso   1.00
C93    C     0.37276   0.42152   0.11692   0.00000  Uiso   1.00
C94    C     0.31870   0.34314   0.09338   0.00000  Uiso   1.00
C95    C     0.27321   0.43958   0.07360   0.00000  Uiso   1.00
C96    C     0.22769   0.34317   0.05380   0.00000  Uiso   1.00
C97    C     0.14373   0.24979   0.01730   0.00000  Uiso   1.00
C98    C     0.38874   0.34327   0.21498   0.00000  Uiso   1.00
C99    C     0.40216   0.43982   0.29742   0.00000  Uiso   1.00
C100   C     0.41562   0.34350   0.37998   0.00000  Uiso   1.00
C101   C     0.44045   0.25033   0.53223   0.00000  Uiso   1.00
C102   C     0.41088   0.34328   0.04242   0.00000  Uiso   1.00
C103   C     0.44293   0.43983   0.97980   0.00000  Uiso   1.00
C104   C     0.47503   0.34353   0.91709   0.00000  Uiso   1.00
C105   C     0.53423   0.25037   0.80142   0.00000  Uiso   1.00
C106   C     0.37281   0.07881   0.11694   0.00000  Uiso   1.00
C107   C     0.31872   0.15700   0.09340   0.00000  Uiso   1.00
C108   C     0.27326   0.06041   0.07362   0.00000  Uiso   1.00
C109   C     0.22772   0.15669   0.05381   0.00000  Uiso   1.00
C110   C     0.38877   0.15713   0.21499   0.00000  Uiso   1.00
C111   C     0.40222   0.06065   0.29744   0.00000  Uiso   1.00
C112   C     0.41565   0.15703   0.37999   0.00000  Uiso   1.00
C113   C     0.41091   0.15714   0.04243   0.00000  Uiso   1.00
C114   C     0.44298   0.06067   0.97981   0.00000  Uiso   1.00
C115   C     0.47506   0.15705   0.91710   0.00000  Uiso   1.00
H116   H     0.37274   0.56643   0.11692   0.00000  Uiso   1.00
H117   H     0.27320   0.58363   0.07361   0.00000  Uiso   1.00
H118   H     0.40214   0.58386   0.29739   0.00000  Uiso   1.00
H119   H     0.44290   0.58388   0.97981   0.00000  Uiso   1.00
H120   H     0.16285   0.52061   0.02563   0.00000  Uiso   1.00
H121   H     0.43475   0.52110   0.49747   0.00000  Uiso   1.00
H122   H     0.52068   0.52113   0.82780   0.00000  Uiso   1.00
H123   H     0.37283   0.93388   0.11695   0.00000  Uiso   1.00
H124   H     0.27330   0.91636   0.07363   0.00000  Uiso   1.00
H125   H     0.40224   0.91661   0.29742   0.00000  Uiso   1.00
H126   H     0.44299   0.91662   0.97984   0.00000  Uiso   1.00
H127   H     0.16293   0.97903   0.02565   0.00000  Uiso   1.00
H128   H     0.43482   0.97953   0.49750   0.00000  Uiso   1.00
H129   H     0.52076   0.97955   0.82782   0.00000  Uiso   1.00
O130   O     0.09741   0.24971   0.99718   0.00000  Uiso   1.00
O131   O     0.45413   0.25036   0.61622   0.00000  Uiso   1.00
O132   O     0.56687   0.25040   0.73762   0.00000  Uiso   1.00
N133   N     0.17653   0.39555   0.03156   0.00000  Uiso   1.00
N134   N     0.43073   0.39601   0.47271   0.00000  Uiso   1.00
N135   N     0.51108   0.39604   0.84664   0.00000  Uiso   1.00
N136   N     0.17657   0.10413   0.03157   0.00000  Uiso   1.00
N137   N     0.43077   0.10460   0.47273   0.00000  Uiso   1.00
N138   N     0.51112   0.10462   0.84665   0.00000  Uiso   1.00
C139   C     0.12724   0.57848   0.61692   0.00000  Uiso   1.00
C140   C     0.18130   0.65686   0.59338   0.00000  Uiso   1.00
C141   C     0.22679   0.56042   0.57360   0.00000  Uiso   1.00
C142   C     0.27231   0.65683   0.55380   0.00000  Uiso   1.00
C143   C     0.35627   0.75021   0.51730   0.00000  Uiso   1.00
C144   C     0.11126   0.65673   0.71498   0.00000  Uiso   1.00
C145   C     0.09784   0.56018   0.79742   0.00000  Uiso   1.00
C146   C     0.08438   0.65650   0.87998   0.00000  Uiso   1.00
C147   C     0.05955   0.74967   0.03223   0.00000  Uiso   1.00
C148   C     0.08912   0.65672   0.54242   0.00000  Uiso   1.00
C149   C     0.05707   0.56017   0.47980   0.00000  Uiso   1.00
C150   C     0.02497   0.65647   0.41709   0.00000  Uiso   1.00
C151   C     0.96577   0.74963   0.30142   0.00000  Uiso   1.00
C152   C     0.12719   0.92119   0.61694   0.00000  Uiso   1.00
C153   C     0.18128   0.84300   0.59340   0.00000  Uiso   1.00
C154   C     0.22674   0.93959   0.57362   0.00000  Uiso   1.00
C155   C     0.27228   0.84331   0.55381   0.00000  Uiso   1.00
C156   C     0.11123   0.84287   0.71499   0.00000  Uiso   1.00
C157   C     0.09778   0.93935   0.79744   0.00000  Uiso   1.00
C158   C     0.08435   0.84297   0.87999   0.00000  Uiso   1.00
C159   C     0.08909   0.84286   0.54243   0.00000  Uiso   1.00
C160   C     0.05702   0.93933   0.47981   0.00000  Uiso   1.00
C161   C     0.02494   0.84295   0.41710   0.00000  Uiso   1.00
H162   H     0.12726   0.43357   0.61692   0.00000  Uiso   1.00
H163   H     0.22680   0.41637   0.57361   0.00000  Uiso   1.00
H164   H     0.09786   0.41614   0.79739   0.00000  Uiso   1.00
H165   H     0.05710   0.41612   0.47981   0.00000  Uiso   1.00
H166   H     0.33715   0.47939   0.52563   0.00000  Uiso   1.00
H167   H     0.06525   0.47890   0.99747   0.00000  Uiso   1.00
H168   H     0.97932   0.47887   0.32780   0.00000  Uiso   1.00
H169   H     0.12717   0.06612   0.61695   0.00000  Uiso   1.00
H170   H     0.22670   0.08364   0.57363   0.00000  Uiso   1.00
H171   H     0.09776   0.08339   0.79742   0.00000  Uiso   1.00
H172   H     0.05701   0.08338   0.47984   0.00000  Uiso   1.00
H173   H     0.33707   0.02097   0.52565   0.00000  Uiso   1.00
H174   H     0.06518   0.02047   0.99750   0.00000  Uiso   1.00
H175   H     0.97924   0.02045   0.32782   0.00000  Uiso   1.00
O176   O     0.40259   0.75029   0.49718   0.00000  Uiso   1.00
O177   O     0.04587   0.74964   0.11622   0.00000  Uiso   1.00
O178   O     0.93313   0.74960   0.23762   0.00000  Uiso   1.00
N179   N     0.32347   0.60445   0.53156   0.00000  Uiso   1.00
N180   N     0.06927   0.60399   0.97271   0.00000  Uiso   1.00
N181   N     0.98892   0.60396   0.34664   0.00000  Uiso   1.00
N182   N     0.32343   0.89587   0.53157   0.00000  Uiso   1.00
N183   N     0.06923   0.89540   0.97273   0.00000  Uiso   1.00
N184   N     0.98888   0.89538   0.34665   0.00000  Uiso   1.00
