data_job_01876
_audit_creation_date              2018-12-19
_audit_creation_method            'Materials Studio'
_symmetry_space_group_name_H-M    'P1'
_symmetry_Int_Tables_number       1
_symmetry_cell_setting            triclinic
loop_
_symmetry_equiv_pos_as_xyz
  x,y,z
_cell_length_a                    8.8891
_cell_length_b                    11.6356
_cell_length_c                    21.2618
_cell_angle_alpha                 94.8950
_cell_angle_beta                  79.8964
_cell_angle_gamma                 72.8627
loop_
_atom_site_label
_atom_site_type_symbol
_atom_site_fract_x
_atom_site_fract_y
_atom_site_fract_z
_atom_site_U_iso_or_equiv
_atom_site_adp_type
_atom_site_occupancy
C1     C     0.98515   0.79923   0.82299   0.00000  Uiso   1.00
C2     C     0.05164   0.69580   0.86007   0.00000  Uiso   1.00
C3     C     0.18068   0.68278   0.89033   0.00000  Uiso   1.00
C4     C     0.22297   0.58183   0.92171   0.00000  Uiso   1.00
C5     C     0.33902   0.43409   0.97910   0.00000  Uiso   1.00
C6     C     0.99087   0.73934   0.75559   0.00000  Uiso   1.00
C7     C     0.06880   0.76294   0.69800   0.00000  Uiso   1.00
C8     C     0.05990   0.69865   0.64142   0.00000  Uiso   1.00
C9     C     0.08150   0.61857   0.53659   0.00000  Uiso   1.00
C10    C     0.80717   0.85555   0.85462   0.00000  Uiso   1.00
C11    C     0.73062   0.97688   0.88029   0.00000  Uiso   1.00
C12    C     0.56705   0.01044   0.90708   0.00000  Uiso   1.00
C13    C     0.30342   0.11080   0.95601   0.00000  Uiso   1.00
C14    C     0.83078   0.64309   0.82489   0.00000  Uiso   1.00
C15    C     0.96780   0.61099   0.86110   0.00000  Uiso   1.00
C16    C     0.00989   0.51003   0.89244   0.00000  Uiso   1.00
C17    C     0.13897   0.49687   0.92275   0.00000  Uiso   1.00
C18    C     0.90703   0.65453   0.75662   0.00000  Uiso   1.00
C19    C     0.89800   0.59019   0.70011   0.00000  Uiso   1.00
C20    C     0.97590   0.61369   0.64246   0.00000  Uiso   1.00
C21    C     0.72332   0.77074   0.85565   0.00000  Uiso   1.00
C22    C     0.55983   0.80412   0.88240   0.00000  Uiso   1.00
C23    C     0.48305   0.92548   0.90811   0.00000  Uiso   1.00
H24    H     0.05043   0.86526   0.82218   0.00000  Uiso   1.00
H25    H     0.24555   0.74843   0.88952   0.00000  Uiso   1.00
H26    H     0.13366   0.82859   0.69722   0.00000  Uiso   1.00
H27    H     0.79554   0.04249   0.87948   0.00000  Uiso   1.00
H28    H     0.42493   0.58148   0.96461   0.00000  Uiso   1.00
H29    H     0.18896   0.75053   0.55913   0.00000  Uiso   1.00
H30    H     0.47597   0.20158   0.94347   0.00000  Uiso   1.00
H31    H     0.76550   0.57706   0.82570   0.00000  Uiso   1.00
H32    H     0.94498   0.44441   0.89323   0.00000  Uiso   1.00
H33    H     0.83310   0.52457   0.70093   0.00000  Uiso   1.00
H34    H     0.49498   0.73847   0.88319   0.00000  Uiso   1.00
H35    H     0.18099   0.33473   0.96762   0.00000  Uiso   1.00
H36    H     0.94501   0.50378   0.56214   0.00000  Uiso   1.00
H37    H     0.23203   0.95482   0.94648   0.00000  Uiso   1.00
O38    O     0.42620   0.37602   0.01046   0.00000  Uiso   1.00
O39    O     0.11660   0.59783   0.47849   0.00000  Uiso   1.00
O40    O     0.18118   0.18959   0.98273   0.00000  Uiso   1.00
N41    N     0.34287   0.54162   0.95606   0.00000  Uiso   1.00
N42    N     0.12227   0.69966   0.57696   0.00000  Uiso   1.00
N43    N     0.45568   0.12136   0.93627   0.00000  Uiso   1.00
N44    N     0.21160   0.40885   0.95768   0.00000  Uiso   1.00
N45    N     0.99101   0.56688   0.57858   0.00000  Uiso   1.00
N46    N     0.32441   0.98858   0.93789   0.00000  Uiso   1.00
C47    C     0.01485   0.20077   0.17701   0.00000  Uiso   1.00
C48    C     0.94836   0.30420   0.13993   0.00000  Uiso   1.00
C49    C     0.81932   0.31722   0.10967   0.00000  Uiso   1.00
C50    C     0.77703   0.41817   0.07829   0.00000  Uiso   1.00
C51    C     0.66098   0.56591   0.02090   0.00000  Uiso   1.00
C52    C     0.00913   0.26066   0.24441   0.00000  Uiso   1.00
C53    C     0.93120   0.23706   0.30200   0.00000  Uiso   1.00
C54    C     0.94010   0.30135   0.35858   0.00000  Uiso   1.00
C55    C     0.91850   0.38143   0.46341   0.00000  Uiso   1.00
C56    C     0.19283   0.14445   0.14538   0.00000  Uiso   1.00
C57    C     0.26938   0.02312   0.11971   0.00000  Uiso   1.00
C58    C     0.43295   0.98956   0.09292   0.00000  Uiso   1.00
C59    C     0.69658   0.88920   0.04399   0.00000  Uiso   1.00
C60    C     0.16922   0.35691   0.17511   0.00000  Uiso   1.00
C61    C     0.03220   0.38901   0.13890   0.00000  Uiso   1.00
C62    C     0.99011   0.48997   0.10756   0.00000  Uiso   1.00
C63    C     0.86103   0.50313   0.07725   0.00000  Uiso   1.00
C64    C     0.09297   0.34547   0.24338   0.00000  Uiso   1.00
C65    C     0.10200   0.40981   0.29989   0.00000  Uiso   1.00
C66    C     0.02410   0.38631   0.35754   0.00000  Uiso   1.00
C67    C     0.27668   0.22926   0.14435   0.00000  Uiso   1.00
C68    C     0.44017   0.19588   0.11760   0.00000  Uiso   1.00
C69    C     0.51695   0.07452   0.09189   0.00000  Uiso   1.00
H70    H     0.94957   0.13474   0.17782   0.00000  Uiso   1.00
H71    H     0.75445   0.25157   0.11048   0.00000  Uiso   1.00
H72    H     0.86634   0.17141   0.30278   0.00000  Uiso   1.00
H73    H     0.20446   0.95751   0.12052   0.00000  Uiso   1.00
H74    H     0.57507   0.41852   0.03539   0.00000  Uiso   1.00
H75    H     0.81104   0.24947   0.44087   0.00000  Uiso   1.00
H76    H     0.52403   0.79842   0.05653   0.00000  Uiso   1.00
H77    H     0.23450   0.42294   0.17430   0.00000  Uiso   1.00
H78    H     0.05502   0.55559   0.10677   0.00000  Uiso   1.00
H79    H     0.16690   0.47543   0.29907   0.00000  Uiso   1.00
H80    H     0.50502   0.26153   0.11681   0.00000  Uiso   1.00
H81    H     0.81901   0.66527   0.03238   0.00000  Uiso   1.00
H82    H     0.05499   0.49622   0.43786   0.00000  Uiso   1.00
H83    H     0.76797   0.04518   0.05352   0.00000  Uiso   1.00
O84    O     0.57380   0.62398   0.98954   0.00000  Uiso   1.00
O85    O     0.88340   0.40217   0.52151   0.00000  Uiso   1.00
O86    O     0.81882   0.81041   0.01727   0.00000  Uiso   1.00
N87    N     0.65713   0.45838   0.04394   0.00000  Uiso   1.00
N88    N     0.87773   0.30034   0.42304   0.00000  Uiso   1.00
N89    N     0.54432   0.87864   0.06373   0.00000  Uiso   1.00
N90    N     0.78840   0.59115   0.04232   0.00000  Uiso   1.00
N91    N     0.00899   0.43312   0.42142   0.00000  Uiso   1.00
N92    N     0.67559   0.01142   0.06211   0.00000  Uiso   1.00
