data_job_02711
_audit_creation_date              2018-12-19
_audit_creation_method            'Materials Studio'
_symmetry_space_group_name_H-M    'P1'
_symmetry_Int_Tables_number       1
_symmetry_cell_setting            triclinic
loop_
_symmetry_equiv_pos_as_xyz
  x,y,z
_cell_length_a                    31.3529
_cell_length_b                    12.4160
_cell_length_c                    13.0190
_cell_angle_alpha                 90.0000
_cell_angle_beta                  90.0000
_cell_angle_gamma                 90.0000
loop_
_atom_site_label
_atom_site_type_symbol
_atom_site_fract_x
_atom_site_fract_y
_atom_site_fract_z
_atom_site_U_iso_or_equiv
_atom_site_adp_type
_atom_site_occupancy
C1     C     0.86615   0.13808   0.08637   0.00000  Uiso   1.00
C2     C     0.82751   0.11688   0.15457   0.00000  Uiso   1.00
C3     C     0.78515   0.12648   0.12502   0.00000  Uiso   1.00
C4     C     0.75447   0.10351   0.19872   0.00000  Uiso   1.00
C5     C     0.69274   0.07543   0.28947   0.00000  Uiso   1.00
C6     C     0.89271   0.22281   0.14204   0.00000  Uiso   1.00
C7     C     0.90517   0.32148   0.10194   0.00000  Uiso   1.00
C8     C     0.92938   0.38768   0.16510   0.00000  Uiso   1.00
C9     C     0.96891   0.52404   0.23637   0.00000  Uiso   1.00
C10    C     0.89251   0.03489   0.08824   0.00000  Uiso   1.00
C11    C     0.90482   0.97555   0.00290   0.00000  Uiso   1.00
C12    C     0.92888   0.88354   0.02076   0.00000  Uiso   1.00
C13    C     0.96810   0.72811   0.00848   0.00000  Uiso   1.00
C14    C     0.88698   0.08019   0.26983   0.00000  Uiso   1.00
C15    C     0.83882   0.08544   0.25422   0.00000  Uiso   1.00
C16    C     0.80820   0.06244   0.32799   0.00000  Uiso   1.00
C17    C     0.76580   0.07201   0.29855   0.00000  Uiso   1.00
C18    C     0.90402   0.19138   0.24169   0.00000  Uiso   1.00
C19    C     0.92822   0.25744   0.30492   0.00000  Uiso   1.00
C20    C     0.94072   0.35619   0.26493   0.00000  Uiso   1.00
C21    C     0.90383   0.00344   0.18788   0.00000  Uiso   1.00
C22    C     0.92787   0.91151   0.20588   0.00000  Uiso   1.00
C23    C     0.94021   0.85205   0.12058   0.00000  Uiso   1.00
H24    H     0.85734   0.16256   0.00880   0.00000  Uiso   1.00
H25    H     0.77641   0.15083   0.04790   0.00000  Uiso   1.00
H26    H     0.89642   0.34579   0.02483   0.00000  Uiso   1.00
H27    H     0.89606   0.99991   0.92580   0.00000  Uiso   1.00
H28    H     0.69167   0.12399   0.13520   0.00000  Uiso   1.00
H29    H     0.94472   0.53506   0.08654   0.00000  Uiso   1.00
H30    H     0.94398   0.80571   0.87772   0.00000  Uiso   1.00
H31    H     0.89579   0.05572   0.34741   0.00000  Uiso   1.00
H32    H     0.81696   0.03811   0.40510   0.00000  Uiso   1.00
H33    H     0.93697   0.23308   0.38202   0.00000  Uiso   1.00
H34    H     0.93662   0.88720   0.28300   0.00000  Uiso   1.00
H35    H     0.72458   0.03252   0.42512   0.00000  Uiso   1.00
H36    H     0.97764   0.44359   0.37645   0.00000  Uiso   1.00
H37    H     0.97689   0.71424   0.16764   0.00000  Uiso   1.00
O38    O     0.65557   0.06864   0.31200   0.00000  Uiso   1.00
O39    O     0.98758   0.60794   0.24815   0.00000  Uiso   1.00
O40    O     0.98660   0.65105   0.97419   0.00000  Uiso   1.00
N41    N     0.71023   0.10486   0.19551   0.00000  Uiso   1.00
N42    N     0.94682   0.48919   0.15002   0.00000  Uiso   1.00
N43    N     0.94613   0.80733   0.95479   0.00000  Uiso   1.00
N44    N     0.72794   0.05563   0.35151   0.00000  Uiso   1.00
N45    N     0.96453   0.43997   0.30602   0.00000  Uiso   1.00
N46    N     0.96384   0.75810   0.11079   0.00000  Uiso   1.00
C47    C     0.63385   0.36192   0.08637   0.00000  Uiso   1.00
C48    C     0.67249   0.38312   0.15457   0.00000  Uiso   1.00
C49    C     0.71485   0.37352   0.12502   0.00000  Uiso   1.00
C50    C     0.74553   0.39649   0.19872   0.00000  Uiso   1.00
C51    C     0.80726   0.42457   0.28947   0.00000  Uiso   1.00
C52    C     0.60729   0.27719   0.14204   0.00000  Uiso   1.00
C53    C     0.59483   0.17852   0.10194   0.00000  Uiso   1.00
C54    C     0.57062   0.11232   0.16510   0.00000  Uiso   1.00
C55    C     0.53109   0.97596   0.23637   0.00000  Uiso   1.00
C56    C     0.60749   0.46511   0.08824   0.00000  Uiso   1.00
C57    C     0.59518   0.52445   0.00290   0.00000  Uiso   1.00
C58    C     0.57112   0.61646   0.02076   0.00000  Uiso   1.00
C59    C     0.53190   0.77189   0.00848   0.00000  Uiso   1.00
C60    C     0.61302   0.41981   0.26983   0.00000  Uiso   1.00
C61    C     0.66118   0.41456   0.25422   0.00000  Uiso   1.00
C62    C     0.69180   0.43756   0.32799   0.00000  Uiso   1.00
C63    C     0.73420   0.42799   0.29855   0.00000  Uiso   1.00
C64    C     0.59598   0.30862   0.24169   0.00000  Uiso   1.00
C65    C     0.57178   0.24256   0.30492   0.00000  Uiso   1.00
C66    C     0.55928   0.14381   0.26493   0.00000  Uiso   1.00
C67    C     0.59617   0.49656   0.18788   0.00000  Uiso   1.00
C68    C     0.57213   0.58849   0.20588   0.00000  Uiso   1.00
C69    C     0.55979   0.64795   0.12058   0.00000  Uiso   1.00
H70    H     0.64266   0.33744   0.00880   0.00000  Uiso   1.00
H71    H     0.72359   0.34917   0.04790   0.00000  Uiso   1.00
H72    H     0.60358   0.15421   0.02483   0.00000  Uiso   1.00
H73    H     0.60394   0.50009   0.92580   0.00000  Uiso   1.00
H74    H     0.80833   0.37601   0.13520   0.00000  Uiso   1.00
H75    H     0.55528   0.96494   0.08654   0.00000  Uiso   1.00
H76    H     0.55602   0.69429   0.87772   0.00000  Uiso   1.00
H77    H     0.60421   0.44428   0.34741   0.00000  Uiso   1.00
H78    H     0.68304   0.46189   0.40510   0.00000  Uiso   1.00
H79    H     0.56303   0.26692   0.38202   0.00000  Uiso   1.00
H80    H     0.56338   0.61280   0.28300   0.00000  Uiso   1.00
H81    H     0.77542   0.46748   0.42512   0.00000  Uiso   1.00
H82    H     0.52236   0.05641   0.37645   0.00000  Uiso   1.00
H83    H     0.52311   0.78576   0.16764   0.00000  Uiso   1.00
O84    O     0.84443   0.43136   0.31200   0.00000  Uiso   1.00
O85    O     0.51242   0.89206   0.24815   0.00000  Uiso   1.00
O86    O     0.51340   0.84895   0.97419   0.00000  Uiso   1.00
N87    N     0.78977   0.39514   0.19551   0.00000  Uiso   1.00
N88    N     0.55318   0.01081   0.15002   0.00000  Uiso   1.00
N89    N     0.55387   0.69267   0.95479   0.00000  Uiso   1.00
N90    N     0.77206   0.44437   0.35151   0.00000  Uiso   1.00
N91    N     0.53547   0.06003   0.30602   0.00000  Uiso   1.00
N92    N     0.53616   0.74190   0.11079   0.00000  Uiso   1.00
C93    C     0.13385   0.63808   0.41363   0.00000  Uiso   1.00
C94    C     0.17249   0.61688   0.34543   0.00000  Uiso   1.00
C95    C     0.21485   0.62648   0.37498   0.00000  Uiso   1.00
C96    C     0.24553   0.60351   0.30128   0.00000  Uiso   1.00
C97    C     0.30726   0.57543   0.21053   0.00000  Uiso   1.00
C98    C     0.10729   0.72281   0.35796   0.00000  Uiso   1.00
C99    C     0.09483   0.82148   0.39806   0.00000  Uiso   1.00
C100   C     0.07062   0.88768   0.33490   0.00000  Uiso   1.00
C101   C     0.03109   0.02404   0.26363   0.00000  Uiso   1.00
C102   C     0.10749   0.53489   0.41176   0.00000  Uiso   1.00
C103   C     0.09518   0.47555   0.49710   0.00000  Uiso   1.00
C104   C     0.07112   0.38354   0.47924   0.00000  Uiso   1.00
C105   C     0.03190   0.22811   0.49152   0.00000  Uiso   1.00
C106   C     0.11302   0.58019   0.23017   0.00000  Uiso   1.00
C107   C     0.16118   0.58544   0.24578   0.00000  Uiso   1.00
C108   C     0.19180   0.56244   0.17201   0.00000  Uiso   1.00
C109   C     0.23420   0.57201   0.20145   0.00000  Uiso   1.00
C110   C     0.09598   0.69138   0.25831   0.00000  Uiso   1.00
C111   C     0.07178   0.75744   0.19508   0.00000  Uiso   1.00
C112   C     0.05928   0.85619   0.23507   0.00000  Uiso   1.00
C113   C     0.09617   0.50344   0.31212   0.00000  Uiso   1.00
C114   C     0.07213   0.41151   0.29412   0.00000  Uiso   1.00
C115   C     0.05979   0.35205   0.37942   0.00000  Uiso   1.00
H116   H     0.14266   0.66256   0.49120   0.00000  Uiso   1.00
H117   H     0.22359   0.65083   0.45210   0.00000  Uiso   1.00
H118   H     0.10358   0.84579   0.47517   0.00000  Uiso   1.00
H119   H     0.10394   0.49991   0.57420   0.00000  Uiso   1.00
H120   H     0.30833   0.62399   0.36480   0.00000  Uiso   1.00
H121   H     0.05528   0.03506   0.41346   0.00000  Uiso   1.00
H122   H     0.05602   0.30571   0.62228   0.00000  Uiso   1.00
H123   H     0.10421   0.55572   0.15259   0.00000  Uiso   1.00
H124   H     0.18304   0.53811   0.09490   0.00000  Uiso   1.00
H125   H     0.06303   0.73308   0.11798   0.00000  Uiso   1.00
H126   H     0.06338   0.38720   0.21700   0.00000  Uiso   1.00
H127   H     0.27542   0.53252   0.07488   0.00000  Uiso   1.00
H128   H     0.02236   0.94359   0.12355   0.00000  Uiso   1.00
H129   H     0.02311   0.21424   0.33236   0.00000  Uiso   1.00
O130   O     0.34443   0.56864   0.18800   0.00000  Uiso   1.00
O131   O     0.01242   0.10794   0.25185   0.00000  Uiso   1.00
O132   O     0.01340   0.15105   0.52581   0.00000  Uiso   1.00
N133   N     0.28977   0.60486   0.30449   0.00000  Uiso   1.00
N134   N     0.05318   0.98919   0.34998   0.00000  Uiso   1.00
N135   N     0.05387   0.30733   0.54521   0.00000  Uiso   1.00
N136   N     0.27206   0.55563   0.14849   0.00000  Uiso   1.00
N137   N     0.03547   0.93997   0.19398   0.00000  Uiso   1.00
N138   N     0.03616   0.25810   0.38921   0.00000  Uiso   1.00
C139   C     0.36615   0.86192   0.41363   0.00000  Uiso   1.00
C140   C     0.32751   0.88312   0.34543   0.00000  Uiso   1.00
C141   C     0.28515   0.87352   0.37498   0.00000  Uiso   1.00
C142   C     0.25447   0.89649   0.30128   0.00000  Uiso   1.00
C143   C     0.19274   0.92457   0.21053   0.00000  Uiso   1.00
C144   C     0.39271   0.77719   0.35796   0.00000  Uiso   1.00
C145   C     0.40517   0.67852   0.39806   0.00000  Uiso   1.00
C146   C     0.42938   0.61232   0.33490   0.00000  Uiso   1.00
C147   C     0.46891   0.47596   0.26363   0.00000  Uiso   1.00
C148   C     0.39251   0.96511   0.41176   0.00000  Uiso   1.00
C149   C     0.40482   0.02445   0.49710   0.00000  Uiso   1.00
C150   C     0.42888   0.11646   0.47924   0.00000  Uiso   1.00
C151   C     0.46810   0.27189   0.49152   0.00000  Uiso   1.00
C152   C     0.38698   0.91981   0.23017   0.00000  Uiso   1.00
C153   C     0.33882   0.91456   0.24578   0.00000  Uiso   1.00
C154   C     0.30820   0.93756   0.17201   0.00000  Uiso   1.00
C155   C     0.26580   0.92799   0.20145   0.00000  Uiso   1.00
C156   C     0.40402   0.80862   0.25831   0.00000  Uiso   1.00
C157   C     0.42822   0.74256   0.19508   0.00000  Uiso   1.00
C158   C     0.44072   0.64381   0.23507   0.00000  Uiso   1.00
C159   C     0.40383   0.99656   0.31212   0.00000  Uiso   1.00
C160   C     0.42787   0.08849   0.29412   0.00000  Uiso   1.00
C161   C     0.44021   0.14795   0.37942   0.00000  Uiso   1.00
H162   H     0.35734   0.83744   0.49120   0.00000  Uiso   1.00
H163   H     0.27641   0.84917   0.45210   0.00000  Uiso   1.00
H164   H     0.39642   0.65421   0.47517   0.00000  Uiso   1.00
H165   H     0.39606   0.00009   0.57420   0.00000  Uiso   1.00
H166   H     0.19167   0.87601   0.36480   0.00000  Uiso   1.00
H167   H     0.44472   0.46494   0.41346   0.00000  Uiso   1.00
H168   H     0.44398   0.19429   0.62228   0.00000  Uiso   1.00
H169   H     0.39579   0.94428   0.15259   0.00000  Uiso   1.00
H170   H     0.31696   0.96189   0.09490   0.00000  Uiso   1.00
H171   H     0.43697   0.76692   0.11798   0.00000  Uiso   1.00
H172   H     0.43662   0.11280   0.21700   0.00000  Uiso   1.00
H173   H     0.22458   0.96748   0.07488   0.00000  Uiso   1.00
H174   H     0.47764   0.55641   0.12355   0.00000  Uiso   1.00
H175   H     0.47689   0.28576   0.33236   0.00000  Uiso   1.00
O176   O     0.15557   0.93136   0.18800   0.00000  Uiso   1.00
O177   O     0.48758   0.39206   0.25185   0.00000  Uiso   1.00
O178   O     0.48660   0.34895   0.52581   0.00000  Uiso   1.00
N179   N     0.21023   0.89514   0.30449   0.00000  Uiso   1.00
N180   N     0.44682   0.51081   0.34998   0.00000  Uiso   1.00
N181   N     0.44613   0.19267   0.54521   0.00000  Uiso   1.00
N182   N     0.22794   0.94437   0.14849   0.00000  Uiso   1.00
N183   N     0.46453   0.56003   0.19398   0.00000  Uiso   1.00
N184   N     0.46384   0.24190   0.38921   0.00000  Uiso   1.00
C185   C     0.13385   0.86192   0.91363   0.00000  Uiso   1.00
C186   C     0.17249   0.88312   0.84543   0.00000  Uiso   1.00
C187   C     0.21485   0.87352   0.87498   0.00000  Uiso   1.00
C188   C     0.24553   0.89649   0.80128   0.00000  Uiso   1.00
C189   C     0.30726   0.92457   0.71053   0.00000  Uiso   1.00
C190   C     0.10729   0.77719   0.85796   0.00000  Uiso   1.00
C191   C     0.09483   0.67852   0.89806   0.00000  Uiso   1.00
C192   C     0.07062   0.61232   0.83490   0.00000  Uiso   1.00
C193   C     0.03109   0.47596   0.76363   0.00000  Uiso   1.00
C194   C     0.10749   0.96511   0.91176   0.00000  Uiso   1.00
C195   C     0.09518   0.02445   0.99710   0.00000  Uiso   1.00
C196   C     0.07112   0.11646   0.97924   0.00000  Uiso   1.00
C197   C     0.03190   0.27189   0.99152   0.00000  Uiso   1.00
C198   C     0.11302   0.91981   0.73017   0.00000  Uiso   1.00
C199   C     0.16118   0.91456   0.74578   0.00000  Uiso   1.00
C200   C     0.19180   0.93756   0.67201   0.00000  Uiso   1.00
C201   C     0.23420   0.92799   0.70145   0.00000  Uiso   1.00
C202   C     0.09598   0.80862   0.75831   0.00000  Uiso   1.00
C203   C     0.07178   0.74256   0.69508   0.00000  Uiso   1.00
C204   C     0.05928   0.64381   0.73507   0.00000  Uiso   1.00
C205   C     0.09617   0.99656   0.81212   0.00000  Uiso   1.00
C206   C     0.07213   0.08849   0.79412   0.00000  Uiso   1.00
C207   C     0.05979   0.14795   0.87942   0.00000  Uiso   1.00
H208   H     0.14266   0.83744   0.99120   0.00000  Uiso   1.00
H209   H     0.22359   0.84917   0.95210   0.00000  Uiso   1.00
H210   H     0.10358   0.65421   0.97517   0.00000  Uiso   1.00
H211   H     0.10394   0.00009   0.07420   0.00000  Uiso   1.00
H212   H     0.30833   0.87601   0.86480   0.00000  Uiso   1.00
H213   H     0.05528   0.46494   0.91346   0.00000  Uiso   1.00
H214   H     0.05602   0.19429   0.12228   0.00000  Uiso   1.00
H215   H     0.10421   0.94428   0.65259   0.00000  Uiso   1.00
H216   H     0.18304   0.96189   0.59490   0.00000  Uiso   1.00
H217   H     0.06303   0.76692   0.61798   0.00000  Uiso   1.00
H218   H     0.06338   0.11280   0.71700   0.00000  Uiso   1.00
H219   H     0.27542   0.96748   0.57488   0.00000  Uiso   1.00
H220   H     0.02236   0.55641   0.62355   0.00000  Uiso   1.00
H221   H     0.02311   0.28576   0.83236   0.00000  Uiso   1.00
O222   O     0.34443   0.93136   0.68800   0.00000  Uiso   1.00
O223   O     0.01242   0.39206   0.75185   0.00000  Uiso   1.00
O224   O     0.01340   0.34895   0.02581   0.00000  Uiso   1.00
N225   N     0.28977   0.89514   0.80449   0.00000  Uiso   1.00
N226   N     0.05318   0.51081   0.84998   0.00000  Uiso   1.00
N227   N     0.05387   0.19267   0.04521   0.00000  Uiso   1.00
N228   N     0.27206   0.94437   0.64849   0.00000  Uiso   1.00
N229   N     0.03547   0.56003   0.69398   0.00000  Uiso   1.00
N230   N     0.03616   0.24190   0.88921   0.00000  Uiso   1.00
C231   C     0.36615   0.63808   0.91363   0.00000  Uiso   1.00
C232   C     0.32751   0.61688   0.84543   0.00000  Uiso   1.00
C233   C     0.28515   0.62648   0.87498   0.00000  Uiso   1.00
C234   C     0.25447   0.60351   0.80128   0.00000  Uiso   1.00
C235   C     0.19274   0.57543   0.71053   0.00000  Uiso   1.00
C236   C     0.39271   0.72281   0.85796   0.00000  Uiso   1.00
C237   C     0.40517   0.82148   0.89806   0.00000  Uiso   1.00
C238   C     0.42938   0.88768   0.83490   0.00000  Uiso   1.00
C239   C     0.46891   0.02404   0.76363   0.00000  Uiso   1.00
C240   C     0.39251   0.53489   0.91176   0.00000  Uiso   1.00
C241   C     0.40482   0.47555   0.99710   0.00000  Uiso   1.00
C242   C     0.42888   0.38354   0.97924   0.00000  Uiso   1.00
C243   C     0.46810   0.22811   0.99152   0.00000  Uiso   1.00
C244   C     0.38698   0.58019   0.73017   0.00000  Uiso   1.00
C245   C     0.33882   0.58544   0.74578   0.00000  Uiso   1.00
C246   C     0.30820   0.56244   0.67201   0.00000  Uiso   1.00
C247   C     0.26580   0.57201   0.70145   0.00000  Uiso   1.00
C248   C     0.40402   0.69138   0.75831   0.00000  Uiso   1.00
C249   C     0.42822   0.75744   0.69508   0.00000  Uiso   1.00
C250   C     0.44072   0.85619   0.73507   0.00000  Uiso   1.00
C251   C     0.40383   0.50344   0.81212   0.00000  Uiso   1.00
C252   C     0.42787   0.41151   0.79412   0.00000  Uiso   1.00
C253   C     0.44021   0.35205   0.87942   0.00000  Uiso   1.00
H254   H     0.35734   0.66256   0.99120   0.00000  Uiso   1.00
H255   H     0.27641   0.65083   0.95210   0.00000  Uiso   1.00
H256   H     0.39642   0.84579   0.97517   0.00000  Uiso   1.00
H257   H     0.39606   0.49991   0.07420   0.00000  Uiso   1.00
H258   H     0.19167   0.62399   0.86480   0.00000  Uiso   1.00
H259   H     0.44472   0.03506   0.91346   0.00000  Uiso   1.00
H260   H     0.44398   0.30571   0.12228   0.00000  Uiso   1.00
H261   H     0.39579   0.55572   0.65259   0.00000  Uiso   1.00
H262   H     0.31696   0.53811   0.59490   0.00000  Uiso   1.00
H263   H     0.43697   0.73308   0.61798   0.00000  Uiso   1.00
H264   H     0.43662   0.38720   0.71700   0.00000  Uiso   1.00
H265   H     0.22458   0.53252   0.57488   0.00000  Uiso   1.00
H266   H     0.47764   0.94359   0.62355   0.00000  Uiso   1.00
H267   H     0.47689   0.21424   0.83236   0.00000  Uiso   1.00
O268   O     0.15557   0.56864   0.68800   0.00000  Uiso   1.00
O269   O     0.48758   0.10794   0.75185   0.00000  Uiso   1.00
O270   O     0.48660   0.15105   0.02581   0.00000  Uiso   1.00
N271   N     0.21023   0.60486   0.80449   0.00000  Uiso   1.00
N272   N     0.44682   0.98919   0.84998   0.00000  Uiso   1.00
N273   N     0.44613   0.30733   0.04521   0.00000  Uiso   1.00
N274   N     0.22794   0.55563   0.64849   0.00000  Uiso   1.00
N275   N     0.46453   0.93997   0.69398   0.00000  Uiso   1.00
N276   N     0.46384   0.25810   0.88921   0.00000  Uiso   1.00
C277   C     0.86615   0.36192   0.58637   0.00000  Uiso   1.00
C278   C     0.82751   0.38312   0.65457   0.00000  Uiso   1.00
C279   C     0.78515   0.37352   0.62502   0.00000  Uiso   1.00
C280   C     0.75447   0.39649   0.69872   0.00000  Uiso   1.00
C281   C     0.69274   0.42457   0.78947   0.00000  Uiso   1.00
C282   C     0.89271   0.27719   0.64204   0.00000  Uiso   1.00
C283   C     0.90517   0.17852   0.60194   0.00000  Uiso   1.00
C284   C     0.92938   0.11232   0.66510   0.00000  Uiso   1.00
C285   C     0.96891   0.97596   0.73637   0.00000  Uiso   1.00
C286   C     0.89251   0.46511   0.58824   0.00000  Uiso   1.00
C287   C     0.90482   0.52445   0.50290   0.00000  Uiso   1.00
C288   C     0.92888   0.61646   0.52076   0.00000  Uiso   1.00
C289   C     0.96810   0.77189   0.50848   0.00000  Uiso   1.00
C290   C     0.88698   0.41981   0.76983   0.00000  Uiso   1.00
C291   C     0.83882   0.41456   0.75422   0.00000  Uiso   1.00
C292   C     0.80820   0.43756   0.82799   0.00000  Uiso   1.00
C293   C     0.76580   0.42799   0.79855   0.00000  Uiso   1.00
C294   C     0.90402   0.30862   0.74169   0.00000  Uiso   1.00
C295   C     0.92822   0.24256   0.80492   0.00000  Uiso   1.00
C296   C     0.94072   0.14381   0.76493   0.00000  Uiso   1.00
C297   C     0.90383   0.49656   0.68788   0.00000  Uiso   1.00
C298   C     0.92787   0.58849   0.70588   0.00000  Uiso   1.00
C299   C     0.94021   0.64795   0.62058   0.00000  Uiso   1.00
H300   H     0.85734   0.33744   0.50880   0.00000  Uiso   1.00
H301   H     0.77641   0.34917   0.54790   0.00000  Uiso   1.00
H302   H     0.89642   0.15421   0.52483   0.00000  Uiso   1.00
H303   H     0.89606   0.50009   0.42580   0.00000  Uiso   1.00
H304   H     0.69167   0.37601   0.63520   0.00000  Uiso   1.00
H305   H     0.94472   0.96494   0.58654   0.00000  Uiso   1.00
H306   H     0.94398   0.69429   0.37772   0.00000  Uiso   1.00
H307   H     0.89579   0.44428   0.84741   0.00000  Uiso   1.00
H308   H     0.81696   0.46189   0.90510   0.00000  Uiso   1.00
H309   H     0.93697   0.26692   0.88202   0.00000  Uiso   1.00
H310   H     0.93662   0.61280   0.78300   0.00000  Uiso   1.00
H311   H     0.72458   0.46748   0.92512   0.00000  Uiso   1.00
H312   H     0.97764   0.05641   0.87645   0.00000  Uiso   1.00
H313   H     0.97689   0.78576   0.66764   0.00000  Uiso   1.00
O314   O     0.65557   0.43136   0.81200   0.00000  Uiso   1.00
O315   O     0.98758   0.89206   0.74815   0.00000  Uiso   1.00
O316   O     0.98660   0.84895   0.47419   0.00000  Uiso   1.00
N317   N     0.71023   0.39514   0.69551   0.00000  Uiso   1.00
N318   N     0.94682   0.01081   0.65002   0.00000  Uiso   1.00
N319   N     0.94613   0.69267   0.45479   0.00000  Uiso   1.00
N320   N     0.72794   0.44437   0.85151   0.00000  Uiso   1.00
N321   N     0.96453   0.06003   0.80602   0.00000  Uiso   1.00
N322   N     0.96384   0.74190   0.61079   0.00000  Uiso   1.00
C323   C     0.63385   0.13808   0.58637   0.00000  Uiso   1.00
C324   C     0.67249   0.11688   0.65457   0.00000  Uiso   1.00
C325   C     0.71485   0.12648   0.62502   0.00000  Uiso   1.00
C326   C     0.74553   0.10351   0.69872   0.00000  Uiso   1.00
C327   C     0.80726   0.07543   0.78947   0.00000  Uiso   1.00
C328   C     0.60729   0.22281   0.64204   0.00000  Uiso   1.00
C329   C     0.59483   0.32148   0.60194   0.00000  Uiso   1.00
C330   C     0.57062   0.38768   0.66510   0.00000  Uiso   1.00
C331   C     0.53109   0.52404   0.73637   0.00000  Uiso   1.00
C332   C     0.60749   0.03489   0.58824   0.00000  Uiso   1.00
C333   C     0.59518   0.97555   0.50290   0.00000  Uiso   1.00
C334   C     0.57112   0.88354   0.52076   0.00000  Uiso   1.00
C335   C     0.53190   0.72811   0.50848   0.00000  Uiso   1.00
C336   C     0.61302   0.08019   0.76983   0.00000  Uiso   1.00
C337   C     0.66118   0.08544   0.75422   0.00000  Uiso   1.00
C338   C     0.69180   0.06244   0.82799   0.00000  Uiso   1.00
C339   C     0.73420   0.07201   0.79855   0.00000  Uiso   1.00
C340   C     0.59598   0.19138   0.74169   0.00000  Uiso   1.00
C341   C     0.57178   0.25744   0.80492   0.00000  Uiso   1.00
C342   C     0.55928   0.35619   0.76493   0.00000  Uiso   1.00
C343   C     0.59617   0.00344   0.68788   0.00000  Uiso   1.00
C344   C     0.57213   0.91151   0.70588   0.00000  Uiso   1.00
C345   C     0.55979   0.85205   0.62058   0.00000  Uiso   1.00
H346   H     0.64266   0.16256   0.50880   0.00000  Uiso   1.00
H347   H     0.72359   0.15083   0.54790   0.00000  Uiso   1.00
H348   H     0.60358   0.34579   0.52483   0.00000  Uiso   1.00
H349   H     0.60394   0.99991   0.42580   0.00000  Uiso   1.00
H350   H     0.80833   0.12399   0.63520   0.00000  Uiso   1.00
H351   H     0.55528   0.53506   0.58654   0.00000  Uiso   1.00
H352   H     0.55602   0.80571   0.37772   0.00000  Uiso   1.00
H353   H     0.60421   0.05572   0.84741   0.00000  Uiso   1.00
H354   H     0.68304   0.03811   0.90510   0.00000  Uiso   1.00
H355   H     0.56303   0.23308   0.88202   0.00000  Uiso   1.00
H356   H     0.56338   0.88720   0.78300   0.00000  Uiso   1.00
H357   H     0.77542   0.03252   0.92512   0.00000  Uiso   1.00
H358   H     0.52236   0.44359   0.87645   0.00000  Uiso   1.00
H359   H     0.52311   0.71424   0.66764   0.00000  Uiso   1.00
O360   O     0.84443   0.06864   0.81200   0.00000  Uiso   1.00
O361   O     0.51242   0.60794   0.74815   0.00000  Uiso   1.00
O362   O     0.51340   0.65105   0.47419   0.00000  Uiso   1.00
N363   N     0.78977   0.10486   0.69551   0.00000  Uiso   1.00
N364   N     0.55318   0.48919   0.65002   0.00000  Uiso   1.00
N365   N     0.55387   0.80733   0.45479   0.00000  Uiso   1.00
N366   N     0.77206   0.05563   0.85151   0.00000  Uiso   1.00
N367   N     0.53547   0.43997   0.80602   0.00000  Uiso   1.00
N368   N     0.53616   0.75810   0.61079   0.00000  Uiso   1.00
