data_job_06195
_audit_creation_date              2018-12-19
_audit_creation_method            'Materials Studio'
_symmetry_space_group_name_H-M    'P1'
_symmetry_Int_Tables_number       1
_symmetry_cell_setting            triclinic
loop_
_symmetry_equiv_pos_as_xyz
  x,y,z
_cell_length_a                    16.8743
_cell_length_b                    16.2245
_cell_length_c                    15.9750
_cell_angle_alpha                 97.3565
_cell_angle_beta                  96.8083
_cell_angle_gamma                 97.2494
loop_
_atom_site_label
_atom_site_type_symbol
_atom_site_fract_x
_atom_site_fract_y
_atom_site_fract_z
_atom_site_U_iso_or_equiv
_atom_site_adp_type
_atom_site_occupancy
C1     C     0.24576   0.79922   0.90466   0.00000  Uiso   1.00
C2     C     0.27508   0.89090   0.94154   0.00000  Uiso   1.00
C3     C     0.25133   0.93397   0.01297   0.00000  Uiso   1.00
C4     C     0.28508   0.01753   0.03644   0.00000  Uiso   1.00
C5     C     0.32215   0.15397   0.10074   0.00000  Uiso   1.00
C6     C     0.21098   0.79921   0.81209   0.00000  Uiso   1.00
C7     C     0.13333   0.76518   0.77468   0.00000  Uiso   1.00
C8     C     0.11312   0.77155   0.68917   0.00000  Uiso   1.00
C9     C     0.05068   0.76559   0.55247   0.00000  Uiso   1.00
C10    C     0.32123   0.75677   0.90185   0.00000  Uiso   1.00
C11    C     0.33628   0.68703   0.93989   0.00000  Uiso   1.00
C12    C     0.40889   0.65766   0.92992   0.00000  Uiso   1.00
C13    C     0.51762   0.58579   0.93259   0.00000  Uiso   1.00
C14    C     0.34794   0.87105   0.81931   0.00000  Uiso   1.00
C15    C     0.33058   0.92992   0.89518   0.00000  Uiso   1.00
C16    C     0.36438   0.01344   0.91855   0.00000  Uiso   1.00
C17    C     0.34069   0.05662   0.99000   0.00000  Uiso   1.00
C18    C     0.26647   0.83823   0.76573   0.00000  Uiso   1.00
C19    C     0.24638   0.84465   0.68025   0.00000  Uiso   1.00
C20    C     0.16872   0.81064   0.64272   0.00000  Uiso   1.00
C21    C     0.37673   0.79579   0.85549   0.00000  Uiso   1.00
C22    C     0.44933   0.76651   0.84546   0.00000  Uiso   1.00
C23    C     0.46449   0.69674   0.88348   0.00000  Uiso   1.00
H24    H     0.20254   0.76884   0.94074   0.00000  Uiso   1.00
H25    H     0.20837   0.90375   0.04883   0.00000  Uiso   1.00
H26    H     0.09039   0.73498   0.81057   0.00000  Uiso   1.00
H27    H     0.29331   0.65685   0.97575   0.00000  Uiso   1.00
H28    H     0.23929   0.07054   0.14820   0.00000  Uiso   1.00
H29    H     0.99053   0.71465   0.64581   0.00000  Uiso   1.00
H30    H     0.41842   0.54990   0.99413   0.00000  Uiso   1.00
H31    H     0.39115   0.90143   0.78321   0.00000  Uiso   1.00
H32    H     0.40733   0.04362   0.88266   0.00000  Uiso   1.00
H33    H     0.28935   0.87485   0.64440   0.00000  Uiso   1.00
H34    H     0.49227   0.79672   0.80958   0.00000  Uiso   1.00
H35    H     0.40077   0.18406   0.01332   0.00000  Uiso   1.00
H36    H     0.15201   0.82817   0.51093   0.00000  Uiso   1.00
H37    H     0.57990   0.66342   0.85926   0.00000  Uiso   1.00
O38    O     0.32725   0.21845   0.14900   0.00000  Uiso   1.00
O39    O     0.00090   0.75153   0.48989   0.00000  Uiso   1.00
O40    O     0.56227   0.53538   0.94688   0.00000  Uiso   1.00
N41    N     0.27508   0.07774   0.10282   0.00000  Uiso   1.00
N42    N     0.04251   0.74502   0.63312   0.00000  Uiso   1.00
N43    N     0.44254   0.59097   0.95875   0.00000  Uiso   1.00
N44    N     0.36198   0.13882   0.03024   0.00000  Uiso   1.00
N45    N     0.12940   0.80610   0.56054   0.00000  Uiso   1.00
N46    N     0.52943   0.65206   0.88618   0.00000  Uiso   1.00
C47    C     0.90246   0.24482   0.79902   0.00000  Uiso   1.00
C48    C     0.93799   0.27490   0.89182   0.00000  Uiso   1.00
C49    C     0.00515   0.24939   0.93440   0.00000  Uiso   1.00
C50    C     0.02806   0.28421   0.01917   0.00000  Uiso   1.00
C51    C     0.08970   0.32202   0.15710   0.00000  Uiso   1.00
C52    C     0.81453   0.20940   0.80008   0.00000  Uiso   1.00
C53    C     0.77789   0.12883   0.76552   0.00000  Uiso   1.00
C54    C     0.69687   0.10853   0.77306   0.00000  Uiso   1.00
C55    C     0.56684   0.04467   0.76851   0.00000  Uiso   1.00
C56    C     0.90090   0.32364   0.75645   0.00000  Uiso   1.00
C57    C     0.93686   0.33911   0.68518   0.00000  Uiso   1.00
C58    C     0.92854   0.41498   0.65597   0.00000  Uiso   1.00
C59    C     0.93260   0.52849   0.58366   0.00000  Uiso   1.00
C60    C     0.82372   0.35203   0.87386   0.00000  Uiso   1.00
C61    C     0.89522   0.33312   0.93247   0.00000  Uiso   1.00
C62    C     0.91803   0.36800   0.01720   0.00000  Uiso   1.00
C63    C     0.98521   0.34255   0.05990   0.00000  Uiso   1.00
C64    C     0.77176   0.26762   0.84073   0.00000  Uiso   1.00
C65    C     0.69078   0.24744   0.84832   0.00000  Uiso   1.00
C66    C     0.65402   0.16686   0.81379   0.00000  Uiso   1.00
C67    C     0.85813   0.38187   0.79710   0.00000  Uiso   1.00
C68    C     0.84974   0.45772   0.76799   0.00000  Uiso   1.00
C69    C     0.88569   0.47331   0.69669   0.00000  Uiso   1.00
H70    H     0.93576   0.19949   0.76737   0.00000  Uiso   1.00
H71    H     0.03823   0.20432   0.90292   0.00000  Uiso   1.00
H72    H     0.81101   0.08379   0.73406   0.00000  Uiso   1.00
H73    H     0.96995   0.29404   0.65374   0.00000  Uiso   1.00
H74    H     0.13296   0.23533   0.07114   0.00000  Uiso   1.00
H75    H     0.65384   0.98119   0.71506   0.00000  Uiso   1.00
H76    H     0.98901   0.42454   0.54568   0.00000  Uiso   1.00
H77    H     0.79042   0.39736   0.90551   0.00000  Uiso   1.00
H78    H     0.88492   0.41306   0.04864   0.00000  Uiso   1.00
H79    H     0.65770   0.29252   0.87978   0.00000  Uiso   1.00
H80    H     0.81664   0.50277   0.79946   0.00000  Uiso   1.00
H81    H     0.00853   0.40475   0.18941   0.00000  Uiso   1.00
H82    H     0.52941   0.15060   0.83333   0.00000  Uiso   1.00
H83    H     0.86458   0.59396   0.66396   0.00000  Uiso   1.00
O84    O     0.13551   0.32677   0.22195   0.00000  Uiso   1.00
O85    O     0.50693   0.99335   0.75477   0.00000  Uiso   1.00
O86    O     0.94666   0.57502   0.53256   0.00000  Uiso   1.00
N87    N     0.09071   0.27306   0.07933   0.00000  Uiso   1.00
N88    N     0.64277   0.03545   0.74642   0.00000  Uiso   1.00
N89    N     0.95611   0.44994   0.58806   0.00000  Uiso   1.00
N90    N     0.02376   0.36423   0.14297   0.00000  Uiso   1.00
N91    N     0.57582   0.12661   0.81007   0.00000  Uiso   1.00
N92    N     0.88915   0.54110   0.65170   0.00000  Uiso   1.00
C93    C     0.80042   0.90409   0.24433   0.00000  Uiso   1.00
C94    C     0.88866   0.94023   0.27380   0.00000  Uiso   1.00
C95    C     0.92985   0.00993   0.24775   0.00000  Uiso   1.00
C96    C     0.01033   0.03298   0.28208   0.00000  Uiso   1.00
C97    C     0.14160   0.09593   0.31896   0.00000  Uiso   1.00
C98    C     0.79993   0.81245   0.20774   0.00000  Uiso   1.00
C99    C     0.76650   0.77471   0.12615   0.00000  Uiso   1.00
C100   C     0.77228   0.69019   0.10488   0.00000  Uiso   1.00
C101   C     0.76574   0.55474   0.03922   0.00000  Uiso   1.00
C102   C     0.76042   0.90270   0.32496   0.00000  Uiso   1.00
C103   C     0.69376   0.94082   0.34192   0.00000  Uiso   1.00
C104   C     0.66626   0.93226   0.41934   0.00000  Uiso   1.00
C105   C     0.59838   0.93694   0.53567   0.00000  Uiso   1.00
C106   C     0.87009   0.82109   0.35164   0.00000  Uiso   1.00
C107   C     0.92650   0.89514   0.33209   0.00000  Uiso   1.00
C108   C     0.00694   0.91810   0.36648   0.00000  Uiso   1.00
C109   C     0.04825   0.98782   0.34048   0.00000  Uiso   1.00
C110   C     0.83777   0.76737   0.26603   0.00000  Uiso   1.00
C111   C     0.84359   0.68288   0.24488   0.00000  Uiso   1.00
C112   C     0.81019   0.64502   0.16328   0.00000  Uiso   1.00
C113   C     0.79826   0.85762   0.38325   0.00000  Uiso   1.00
C114   C     0.77085   0.84899   0.46065   0.00000  Uiso   1.00
C115   C     0.70417   0.88710   0.47773   0.00000  Uiso   1.00
H116   H     0.77096   0.93919   0.19894   0.00000  Uiso   1.00
H117   H     0.90055   0.04480   0.20263   0.00000  Uiso   1.00
H118   H     0.73722   0.80961   0.08106   0.00000  Uiso   1.00
H119   H     0.66449   0.97570   0.29680   0.00000  Uiso   1.00
H120   H     0.06092   0.14199   0.23241   0.00000  Uiso   1.00
H121   H     0.71651   0.64609   0.97608   0.00000  Uiso   1.00
H122   H     0.56315   0.99631   0.43100   0.00000  Uiso   1.00
H123   H     0.89956   0.78598   0.39702   0.00000  Uiso   1.00
H124   H     0.03621   0.88319   0.41158   0.00000  Uiso   1.00
H125   H     0.87288   0.64801   0.29000   0.00000  Uiso   1.00
H126   H     0.80015   0.81410   0.50574   0.00000  Uiso   1.00
H127   H     0.17103   0.01082   0.40199   0.00000  Uiso   1.00
H128   H     0.82661   0.51491   0.14566   0.00000  Uiso   1.00
H129   H     0.67326   0.86515   0.60058   0.00000  Uiso   1.00
O130   O     0.20356   0.14310   0.32318   0.00000  Uiso   1.00
O131   O     0.75168   0.49249   0.98689   0.00000  Uiso   1.00
O132   O     0.55048   0.95199   0.58374   0.00000  Uiso   1.00
N133   N     0.06808   0.09779   0.27033   0.00000  Uiso   1.00
N134   N     0.74608   0.63415   0.03067   0.00000  Uiso   1.00
N135   N     0.60269   0.96157   0.45598   0.00000  Uiso   1.00
N136   N     0.12733   0.02721   0.36159   0.00000  Uiso   1.00
N137   N     0.80533   0.56357   0.12193   0.00000  Uiso   1.00
N138   N     0.66194   0.89099   0.54723   0.00000  Uiso   1.00
C139   C     0.75424   0.20078   0.09534   0.00000  Uiso   1.00
C140   C     0.72492   0.10910   0.05846   0.00000  Uiso   1.00
C141   C     0.74867   0.06603   0.98703   0.00000  Uiso   1.00
C142   C     0.71492   0.98247   0.96356   0.00000  Uiso   1.00
C143   C     0.67785   0.84603   0.89926   0.00000  Uiso   1.00
C144   C     0.78902   0.20079   0.18791   0.00000  Uiso   1.00
C145   C     0.86667   0.23482   0.22532   0.00000  Uiso   1.00
C146   C     0.88688   0.22845   0.31083   0.00000  Uiso   1.00
C147   C     0.94932   0.23441   0.44753   0.00000  Uiso   1.00
C148   C     0.67877   0.24323   0.09815   0.00000  Uiso   1.00
C149   C     0.66372   0.31297   0.06011   0.00000  Uiso   1.00
C150   C     0.59111   0.34234   0.07008   0.00000  Uiso   1.00
C151   C     0.48238   0.41421   0.06741   0.00000  Uiso   1.00
C152   C     0.65206   0.12895   0.18069   0.00000  Uiso   1.00
C153   C     0.66942   0.07008   0.10482   0.00000  Uiso   1.00
C154   C     0.63561   0.98656   0.08145   0.00000  Uiso   1.00
C155   C     0.65931   0.94338   0.01000   0.00000  Uiso   1.00
C156   C     0.73352   0.16177   0.23427   0.00000  Uiso   1.00
C157   C     0.75362   0.15535   0.31975   0.00000  Uiso   1.00
C158   C     0.83128   0.18936   0.35728   0.00000  Uiso   1.00
C159   C     0.62327   0.20421   0.14451   0.00000  Uiso   1.00
C160   C     0.55067   0.23349   0.15454   0.00000  Uiso   1.00
C161   C     0.53551   0.30326   0.11652   0.00000  Uiso   1.00
H162   H     0.79746   0.23116   0.05926   0.00000  Uiso   1.00
H163   H     0.79163   0.09625   0.95117   0.00000  Uiso   1.00
H164   H     0.90961   0.26502   0.18943   0.00000  Uiso   1.00
H165   H     0.70669   0.34315   0.02425   0.00000  Uiso   1.00
H166   H     0.76071   0.92946   0.85180   0.00000  Uiso   1.00
H167   H     0.00947   0.28535   0.35419   0.00000  Uiso   1.00
H168   H     0.58158   0.45011   0.00587   0.00000  Uiso   1.00
H169   H     0.60885   0.09857   0.21679   0.00000  Uiso   1.00
H170   H     0.59267   0.95638   0.11734   0.00000  Uiso   1.00
H171   H     0.71065   0.12515   0.35560   0.00000  Uiso   1.00
H172   H     0.50773   0.20328   0.19042   0.00000  Uiso   1.00
H173   H     0.59923   0.81594   0.98668   0.00000  Uiso   1.00
H174   H     0.84799   0.17183   0.48907   0.00000  Uiso   1.00
H175   H     0.42010   0.33658   0.14074   0.00000  Uiso   1.00
O176   O     0.67275   0.78155   0.85100   0.00000  Uiso   1.00
O177   O     0.99910   0.24847   0.51011   0.00000  Uiso   1.00
O178   O     0.43773   0.46462   0.05312   0.00000  Uiso   1.00
N179   N     0.72492   0.92226   0.89718   0.00000  Uiso   1.00
N180   N     0.95749   0.25498   0.36688   0.00000  Uiso   1.00
N181   N     0.55746   0.40903   0.04125   0.00000  Uiso   1.00
N182   N     0.63802   0.86118   0.96976   0.00000  Uiso   1.00
N183   N     0.87060   0.19390   0.43946   0.00000  Uiso   1.00
N184   N     0.47057   0.34794   0.11382   0.00000  Uiso   1.00
C185   C     0.09754   0.75518   0.20098   0.00000  Uiso   1.00
C186   C     0.06201   0.72510   0.10818   0.00000  Uiso   1.00
C187   C     0.99485   0.75061   0.06560   0.00000  Uiso   1.00
C188   C     0.97194   0.71579   0.98083   0.00000  Uiso   1.00
C189   C     0.91030   0.67798   0.84290   0.00000  Uiso   1.00
C190   C     0.18547   0.79060   0.19992   0.00000  Uiso   1.00
C191   C     0.22211   0.87117   0.23448   0.00000  Uiso   1.00
C192   C     0.30313   0.89147   0.22694   0.00000  Uiso   1.00
C193   C     0.43316   0.95533   0.23149   0.00000  Uiso   1.00
C194   C     0.09910   0.67636   0.24355   0.00000  Uiso   1.00
C195   C     0.06314   0.66089   0.31482   0.00000  Uiso   1.00
C196   C     0.07146   0.58502   0.34403   0.00000  Uiso   1.00
C197   C     0.06740   0.47151   0.41634   0.00000  Uiso   1.00
C198   C     0.17628   0.64797   0.12614   0.00000  Uiso   1.00
C199   C     0.10478   0.66688   0.06753   0.00000  Uiso   1.00
C200   C     0.08197   0.63200   0.98280   0.00000  Uiso   1.00
C201   C     0.01479   0.65745   0.94010   0.00000  Uiso   1.00
C202   C     0.22824   0.73238   0.15927   0.00000  Uiso   1.00
C203   C     0.30922   0.75256   0.15168   0.00000  Uiso   1.00
C204   C     0.34598   0.83314   0.18621   0.00000  Uiso   1.00
C205   C     0.14187   0.61813   0.20290   0.00000  Uiso   1.00
C206   C     0.15026   0.54228   0.23201   0.00000  Uiso   1.00
C207   C     0.11431   0.52669   0.30331   0.00000  Uiso   1.00
H208   H     0.06424   0.80051   0.23263   0.00000  Uiso   1.00
H209   H     0.96177   0.79568   0.09708   0.00000  Uiso   1.00
H210   H     0.18899   0.91621   0.26594   0.00000  Uiso   1.00
H211   H     0.03005   0.70596   0.34626   0.00000  Uiso   1.00
H212   H     0.86704   0.76467   0.92886   0.00000  Uiso   1.00
H213   H     0.34616   0.01881   0.28494   0.00000  Uiso   1.00
H214   H     0.01099   0.57546   0.45432   0.00000  Uiso   1.00
H215   H     0.20958   0.60264   0.09449   0.00000  Uiso   1.00
H216   H     0.11508   0.58694   0.95136   0.00000  Uiso   1.00
H217   H     0.34230   0.70748   0.12022   0.00000  Uiso   1.00
H218   H     0.18336   0.49723   0.20054   0.00000  Uiso   1.00
H219   H     0.99147   0.59525   0.81059   0.00000  Uiso   1.00
H220   H     0.47059   0.84940   0.16667   0.00000  Uiso   1.00
H221   H     0.13542   0.40604   0.33604   0.00000  Uiso   1.00
O222   O     0.86449   0.67323   0.77805   0.00000  Uiso   1.00
O223   O     0.49307   0.00665   0.24523   0.00000  Uiso   1.00
O224   O     0.05334   0.42498   0.46744   0.00000  Uiso   1.00
N225   N     0.90929   0.72694   0.92067   0.00000  Uiso   1.00
N226   N     0.35723   0.96455   0.25358   0.00000  Uiso   1.00
N227   N     0.04389   0.55006   0.41194   0.00000  Uiso   1.00
N228   N     0.97624   0.63577   0.85703   0.00000  Uiso   1.00
N229   N     0.42418   0.87339   0.18993   0.00000  Uiso   1.00
N230   N     0.11085   0.45890   0.34830   0.00000  Uiso   1.00
C231   C     0.19958   0.09591   0.75567   0.00000  Uiso   1.00
C232   C     0.11134   0.05977   0.72620   0.00000  Uiso   1.00
C233   C     0.07015   0.99007   0.75225   0.00000  Uiso   1.00
C234   C     0.98967   0.96702   0.71792   0.00000  Uiso   1.00
C235   C     0.85840   0.90407   0.68105   0.00000  Uiso   1.00
C236   C     0.20007   0.18755   0.79226   0.00000  Uiso   1.00
C237   C     0.23350   0.22529   0.87385   0.00000  Uiso   1.00
C238   C     0.22772   0.30981   0.89512   0.00000  Uiso   1.00
C239   C     0.23426   0.44526   0.96078   0.00000  Uiso   1.00
C240   C     0.23958   0.09730   0.67504   0.00000  Uiso   1.00
C241   C     0.30624   0.05918   0.65808   0.00000  Uiso   1.00
C242   C     0.33374   0.06774   0.58066   0.00000  Uiso   1.00
C243   C     0.40162   0.06306   0.46433   0.00000  Uiso   1.00
C244   C     0.12991   0.17892   0.64836   0.00000  Uiso   1.00
C245   C     0.07350   0.10486   0.66791   0.00000  Uiso   1.00
C246   C     0.99306   0.08190   0.63352   0.00000  Uiso   1.00
C247   C     0.95175   0.01218   0.65952   0.00000  Uiso   1.00
C248   C     0.16223   0.23264   0.73397   0.00000  Uiso   1.00
C249   C     0.15641   0.31712   0.75512   0.00000  Uiso   1.00
C250   C     0.18981   0.35498   0.83672   0.00000  Uiso   1.00
C251   C     0.20174   0.14238   0.61675   0.00000  Uiso   1.00
C252   C     0.22915   0.15101   0.53935   0.00000  Uiso   1.00
C253   C     0.29583   0.11290   0.52227   0.00000  Uiso   1.00
H254   H     0.22904   0.06081   0.80106   0.00000  Uiso   1.00
H255   H     0.09945   0.95520   0.79737   0.00000  Uiso   1.00
H256   H     0.26278   0.19039   0.91894   0.00000  Uiso   1.00
H257   H     0.33551   0.02430   0.70320   0.00000  Uiso   1.00
H258   H     0.93908   0.85801   0.76759   0.00000  Uiso   1.00
H259   H     0.28349   0.35392   0.02392   0.00000  Uiso   1.00
H260   H     0.43685   0.00369   0.56900   0.00000  Uiso   1.00
H261   H     0.10044   0.21402   0.60298   0.00000  Uiso   1.00
H262   H     0.96379   0.11681   0.58842   0.00000  Uiso   1.00
H263   H     0.12712   0.35199   0.71000   0.00000  Uiso   1.00
H264   H     0.19985   0.18590   0.49426   0.00000  Uiso   1.00
H265   H     0.82897   0.98918   0.59801   0.00000  Uiso   1.00
H266   H     0.17339   0.48509   0.85434   0.00000  Uiso   1.00
H267   H     0.32674   0.13485   0.39942   0.00000  Uiso   1.00
O268   O     0.79644   0.85690   0.67682   0.00000  Uiso   1.00
O269   O     0.24832   0.50751   0.01311   0.00000  Uiso   1.00
O270   O     0.44952   0.04801   0.41626   0.00000  Uiso   1.00
N271   N     0.93192   0.90221   0.72967   0.00000  Uiso   1.00
N272   N     0.25392   0.36585   0.96933   0.00000  Uiso   1.00
N273   N     0.39731   0.03843   0.54402   0.00000  Uiso   1.00
N274   N     0.87267   0.97279   0.63841   0.00000  Uiso   1.00
N275   N     0.19467   0.43643   0.87807   0.00000  Uiso   1.00
N276   N     0.33806   0.10901   0.45277   0.00000  Uiso   1.00
