data_job_01897
_audit_creation_date              2018-12-19
_audit_creation_method            'Materials Studio'
_symmetry_space_group_name_H-M    'P1'
_symmetry_Int_Tables_number       1
_symmetry_cell_setting            triclinic
loop_
_symmetry_equiv_pos_as_xyz
  x,y,z
_cell_length_a                    13.5564
_cell_length_b                    32.8288
_cell_length_c                    23.8439
_cell_angle_alpha                 90.0000
_cell_angle_beta                  90.0000
_cell_angle_gamma                 90.0000
loop_
_atom_site_label
_atom_site_type_symbol
_atom_site_fract_x
_atom_site_fract_y
_atom_site_fract_z
_atom_site_U_iso_or_equiv
_atom_site_adp_type
_atom_site_occupancy
C1     C     0.70646   0.18754   0.84389   0.00000  Uiso   1.00
C2     C     0.71056   0.14111   0.84388   0.00000  Uiso   1.00
C3     C     0.62970   0.11519   0.84387   0.00000  Uiso   1.00
C4     C     0.64895   0.07365   0.84386   0.00000  Uiso   1.00
C5     C     0.64061   0.00386   0.84382   0.00000  Uiso   1.00
C6     C     0.76540   0.20126   0.79280   0.00000  Uiso   1.00
C7     C     0.73064   0.22592   0.74985   0.00000  Uiso   1.00
C8     C     0.79607   0.23502   0.70683   0.00000  Uiso   1.00
C9     C     0.87288   0.25864   0.62751   0.00000  Uiso   1.00
C10    C     0.76540   0.20126   0.89497   0.00000  Uiso   1.00
C11    C     0.73066   0.22593   0.93792   0.00000  Uiso   1.00
C12    C     0.79610   0.23504   0.98093   0.00000  Uiso   1.00
C13    C     0.87293   0.25865   0.06024   0.00000  Uiso   1.00
C14    C     0.88445   0.15986   0.84388   0.00000  Uiso   1.00
C15    C     0.80724   0.12609   0.84388   0.00000  Uiso   1.00
C16    C     0.82663   0.08458   0.84387   0.00000  Uiso   1.00
C17    C     0.74580   0.05860   0.84386   0.00000  Uiso   1.00
C18    C     0.86207   0.18624   0.79280   0.00000  Uiso   1.00
C19    C     0.92757   0.19530   0.74984   0.00000  Uiso   1.00
C20    C     0.89292   0.21996   0.70683   0.00000  Uiso   1.00
C21    C     0.86208   0.18623   0.89497   0.00000  Uiso   1.00
C22    C     0.92759   0.19531   0.93792   0.00000  Uiso   1.00
C23    C     0.89296   0.21998   0.98092   0.00000  Uiso   1.00
H24    H     0.63119   0.19924   0.84389   0.00000  Uiso   1.00
H25    H     0.55489   0.12684   0.84387   0.00000  Uiso   1.00
H26    H     0.65582   0.23755   0.74986   0.00000  Uiso   1.00
H27    H     0.65584   0.23755   0.93791   0.00000  Uiso   1.00
H28    H     0.51292   0.03994   0.84383   0.00000  Uiso   1.00
H29    H     0.72576   0.27339   0.64562   0.00000  Uiso   1.00
H30    H     0.72580   0.27340   0.04215   0.00000  Uiso   1.00
H31    H     0.95973   0.14816   0.84388   0.00000  Uiso   1.00
H32    H     0.90145   0.07295   0.84387   0.00000  Uiso   1.00
H33    H     0.00238   0.18367   0.74985   0.00000  Uiso   1.00
H34    H     0.00240   0.18367   0.93790   0.00000  Uiso   1.00
H35    H     0.79421   0.99620   0.84382   0.00000  Uiso   1.00
H36    H     0.00704   0.22966   0.64561   0.00000  Uiso   1.00
H37    H     0.00709   0.22967   0.04214   0.00000  Uiso   1.00
O38    O     0.60930   0.96952   0.84379   0.00000  Uiso   1.00
O39    O     0.88854   0.27581   0.58375   0.00000  Uiso   1.00
O40    O     0.88859   0.27582   0.10400   0.00000  Uiso   1.00
N41    N     0.58712   0.03996   0.84384   0.00000  Uiso   1.00
N42    N     0.78611   0.25823   0.65852   0.00000  Uiso   1.00
N43    N     0.78615   0.25825   0.02924   0.00000  Uiso   1.00
N44    N     0.73848   0.01643   0.84384   0.00000  Uiso   1.00
N45    N     0.93746   0.23470   0.65851   0.00000  Uiso   1.00
N46    N     0.93751   0.23471   0.02923   0.00000  Uiso   1.00
C47    C     0.70646   0.68754   0.34389   0.00000  Uiso   1.00
C48    C     0.71056   0.64111   0.34388   0.00000  Uiso   1.00
C49    C     0.62970   0.61519   0.34387   0.00000  Uiso   1.00
C50    C     0.64895   0.57365   0.34386   0.00000  Uiso   1.00
C51    C     0.64061   0.50386   0.34382   0.00000  Uiso   1.00
C52    C     0.76540   0.70126   0.29280   0.00000  Uiso   1.00
C53    C     0.73064   0.72592   0.24985   0.00000  Uiso   1.00
C54    C     0.79607   0.73502   0.20683   0.00000  Uiso   1.00
C55    C     0.87288   0.75864   0.12751   0.00000  Uiso   1.00
C56    C     0.76540   0.70126   0.39497   0.00000  Uiso   1.00
C57    C     0.73066   0.72593   0.43792   0.00000  Uiso   1.00
C58    C     0.79610   0.73504   0.48093   0.00000  Uiso   1.00
C59    C     0.87293   0.75865   0.56024   0.00000  Uiso   1.00
C60    C     0.88445   0.65986   0.34388   0.00000  Uiso   1.00
C61    C     0.80724   0.62609   0.34388   0.00000  Uiso   1.00
C62    C     0.82663   0.58458   0.34387   0.00000  Uiso   1.00
C63    C     0.74580   0.55860   0.34386   0.00000  Uiso   1.00
C64    C     0.86207   0.68624   0.29280   0.00000  Uiso   1.00
C65    C     0.92757   0.69530   0.24984   0.00000  Uiso   1.00
C66    C     0.89292   0.71996   0.20683   0.00000  Uiso   1.00
C67    C     0.86208   0.68623   0.39497   0.00000  Uiso   1.00
C68    C     0.92759   0.69531   0.43792   0.00000  Uiso   1.00
C69    C     0.89296   0.71998   0.48092   0.00000  Uiso   1.00
H70    H     0.63119   0.69924   0.34389   0.00000  Uiso   1.00
H71    H     0.55489   0.62684   0.34387   0.00000  Uiso   1.00
H72    H     0.65582   0.73755   0.24986   0.00000  Uiso   1.00
H73    H     0.65584   0.73755   0.43791   0.00000  Uiso   1.00
H74    H     0.51292   0.53994   0.34383   0.00000  Uiso   1.00
H75    H     0.72576   0.77339   0.14562   0.00000  Uiso   1.00
H76    H     0.72580   0.77340   0.54215   0.00000  Uiso   1.00
H77    H     0.95973   0.64816   0.34388   0.00000  Uiso   1.00
H78    H     0.90145   0.57295   0.34387   0.00000  Uiso   1.00
H79    H     0.00238   0.68367   0.24985   0.00000  Uiso   1.00
H80    H     0.00240   0.68367   0.43790   0.00000  Uiso   1.00
H81    H     0.79421   0.49620   0.34382   0.00000  Uiso   1.00
H82    H     0.00704   0.72966   0.14561   0.00000  Uiso   1.00
H83    H     0.00709   0.72967   0.54214   0.00000  Uiso   1.00
O84    O     0.60930   0.46952   0.34379   0.00000  Uiso   1.00
O85    O     0.88854   0.77581   0.08375   0.00000  Uiso   1.00
O86    O     0.88859   0.77582   0.60400   0.00000  Uiso   1.00
N87    N     0.58712   0.53996   0.34384   0.00000  Uiso   1.00
N88    N     0.78611   0.75823   0.15852   0.00000  Uiso   1.00
N89    N     0.78615   0.75825   0.52924   0.00000  Uiso   1.00
N90    N     0.73848   0.51643   0.34384   0.00000  Uiso   1.00
N91    N     0.93746   0.73470   0.15851   0.00000  Uiso   1.00
N92    N     0.93751   0.73471   0.52923   0.00000  Uiso   1.00
C93    C     0.29354   0.81246   0.84389   0.00000  Uiso   1.00
C94    C     0.28944   0.85889   0.84388   0.00000  Uiso   1.00
C95    C     0.37030   0.88481   0.84387   0.00000  Uiso   1.00
C96    C     0.35105   0.92635   0.84386   0.00000  Uiso   1.00
C97    C     0.35939   0.99614   0.84382   0.00000  Uiso   1.00
C98    C     0.23460   0.79874   0.79280   0.00000  Uiso   1.00
C99    C     0.26936   0.77408   0.74985   0.00000  Uiso   1.00
C100   C     0.20393   0.76498   0.70683   0.00000  Uiso   1.00
C101   C     0.12712   0.74136   0.62751   0.00000  Uiso   1.00
C102   C     0.23460   0.79874   0.89497   0.00000  Uiso   1.00
C103   C     0.26934   0.77407   0.93792   0.00000  Uiso   1.00
C104   C     0.20390   0.76496   0.98093   0.00000  Uiso   1.00
C105   C     0.12707   0.74135   0.06024   0.00000  Uiso   1.00
C106   C     0.11555   0.84014   0.84388   0.00000  Uiso   1.00
C107   C     0.19276   0.87391   0.84388   0.00000  Uiso   1.00
C108   C     0.17337   0.91542   0.84387   0.00000  Uiso   1.00
C109   C     0.25420   0.94140   0.84386   0.00000  Uiso   1.00
C110   C     0.13793   0.81376   0.79280   0.00000  Uiso   1.00
C111   C     0.07243   0.80470   0.74984   0.00000  Uiso   1.00
C112   C     0.10708   0.78004   0.70683   0.00000  Uiso   1.00
C113   C     0.13792   0.81377   0.89497   0.00000  Uiso   1.00
C114   C     0.07241   0.80469   0.93792   0.00000  Uiso   1.00
C115   C     0.10704   0.78002   0.98092   0.00000  Uiso   1.00
H116   H     0.36881   0.80076   0.84389   0.00000  Uiso   1.00
H117   H     0.44511   0.87316   0.84387   0.00000  Uiso   1.00
H118   H     0.34418   0.76245   0.74986   0.00000  Uiso   1.00
H119   H     0.34416   0.76245   0.93791   0.00000  Uiso   1.00
H120   H     0.48708   0.96006   0.84383   0.00000  Uiso   1.00
H121   H     0.27424   0.72661   0.64562   0.00000  Uiso   1.00
H122   H     0.27420   0.72660   0.04215   0.00000  Uiso   1.00
H123   H     0.04027   0.85184   0.84388   0.00000  Uiso   1.00
H124   H     0.09855   0.92705   0.84387   0.00000  Uiso   1.00
H125   H     0.99762   0.81633   0.74985   0.00000  Uiso   1.00
H126   H     0.99760   0.81633   0.93790   0.00000  Uiso   1.00
H127   H     0.20579   0.00380   0.84382   0.00000  Uiso   1.00
H128   H     0.99296   0.77034   0.64561   0.00000  Uiso   1.00
H129   H     0.99291   0.77033   0.04214   0.00000  Uiso   1.00
O130   O     0.39070   0.03048   0.84379   0.00000  Uiso   1.00
O131   O     0.11146   0.72419   0.58375   0.00000  Uiso   1.00
O132   O     0.11141   0.72418   0.10400   0.00000  Uiso   1.00
N133   N     0.41288   0.96004   0.84384   0.00000  Uiso   1.00
N134   N     0.21389   0.74177   0.65852   0.00000  Uiso   1.00
N135   N     0.21385   0.74175   0.02924   0.00000  Uiso   1.00
N136   N     0.26152   0.98357   0.84384   0.00000  Uiso   1.00
N137   N     0.06254   0.76530   0.65851   0.00000  Uiso   1.00
N138   N     0.06249   0.76529   0.02923   0.00000  Uiso   1.00
C139   C     0.29354   0.31246   0.34389   0.00000  Uiso   1.00
C140   C     0.28944   0.35889   0.34388   0.00000  Uiso   1.00
C141   C     0.37030   0.38481   0.34387   0.00000  Uiso   1.00
C142   C     0.35105   0.42635   0.34386   0.00000  Uiso   1.00
C143   C     0.35939   0.49614   0.34382   0.00000  Uiso   1.00
C144   C     0.23460   0.29874   0.29280   0.00000  Uiso   1.00
C145   C     0.26936   0.27408   0.24985   0.00000  Uiso   1.00
C146   C     0.20393   0.26498   0.20683   0.00000  Uiso   1.00
C147   C     0.12712   0.24136   0.12751   0.00000  Uiso   1.00
C148   C     0.23460   0.29874   0.39497   0.00000  Uiso   1.00
C149   C     0.26934   0.27407   0.43792   0.00000  Uiso   1.00
C150   C     0.20390   0.26496   0.48093   0.00000  Uiso   1.00
C151   C     0.12707   0.24135   0.56024   0.00000  Uiso   1.00
C152   C     0.11555   0.34014   0.34388   0.00000  Uiso   1.00
C153   C     0.19276   0.37391   0.34388   0.00000  Uiso   1.00
C154   C     0.17337   0.41542   0.34387   0.00000  Uiso   1.00
C155   C     0.25420   0.44140   0.34386   0.00000  Uiso   1.00
C156   C     0.13793   0.31376   0.29280   0.00000  Uiso   1.00
C157   C     0.07243   0.30470   0.24984   0.00000  Uiso   1.00
C158   C     0.10708   0.28004   0.20683   0.00000  Uiso   1.00
C159   C     0.13792   0.31377   0.39497   0.00000  Uiso   1.00
C160   C     0.07241   0.30469   0.43792   0.00000  Uiso   1.00
C161   C     0.10704   0.28002   0.48092   0.00000  Uiso   1.00
H162   H     0.36881   0.30076   0.34389   0.00000  Uiso   1.00
H163   H     0.44511   0.37316   0.34387   0.00000  Uiso   1.00
H164   H     0.34418   0.26245   0.24986   0.00000  Uiso   1.00
H165   H     0.34416   0.26245   0.43791   0.00000  Uiso   1.00
H166   H     0.48708   0.46006   0.34383   0.00000  Uiso   1.00
H167   H     0.27424   0.22661   0.14562   0.00000  Uiso   1.00
H168   H     0.27420   0.22660   0.54215   0.00000  Uiso   1.00
H169   H     0.04027   0.35184   0.34388   0.00000  Uiso   1.00
H170   H     0.09855   0.42705   0.34387   0.00000  Uiso   1.00
H171   H     0.99762   0.31633   0.24985   0.00000  Uiso   1.00
H172   H     0.99760   0.31633   0.43790   0.00000  Uiso   1.00
H173   H     0.20579   0.50380   0.34382   0.00000  Uiso   1.00
H174   H     0.99296   0.27034   0.14561   0.00000  Uiso   1.00
H175   H     0.99291   0.27033   0.54214   0.00000  Uiso   1.00
O176   O     0.39070   0.53048   0.34379   0.00000  Uiso   1.00
O177   O     0.11146   0.22419   0.08375   0.00000  Uiso   1.00
O178   O     0.11141   0.22418   0.60400   0.00000  Uiso   1.00
N179   N     0.41288   0.46004   0.34384   0.00000  Uiso   1.00
N180   N     0.21389   0.24177   0.15852   0.00000  Uiso   1.00
N181   N     0.21385   0.24175   0.52924   0.00000  Uiso   1.00
N182   N     0.26152   0.48357   0.34384   0.00000  Uiso   1.00
N183   N     0.06254   0.26530   0.15851   0.00000  Uiso   1.00
N184   N     0.06249   0.26529   0.52923   0.00000  Uiso   1.00
C185   C     0.20646   0.31246   0.84389   0.00000  Uiso   1.00
C186   C     0.21056   0.35889   0.84388   0.00000  Uiso   1.00
C187   C     0.12970   0.38481   0.84387   0.00000  Uiso   1.00
C188   C     0.14895   0.42635   0.84386   0.00000  Uiso   1.00
C189   C     0.14061   0.49614   0.84382   0.00000  Uiso   1.00
C190   C     0.26540   0.29874   0.79280   0.00000  Uiso   1.00
C191   C     0.23064   0.27408   0.74985   0.00000  Uiso   1.00
C192   C     0.29607   0.26498   0.70683   0.00000  Uiso   1.00
C193   C     0.37288   0.24136   0.62751   0.00000  Uiso   1.00
C194   C     0.26540   0.29874   0.89497   0.00000  Uiso   1.00
C195   C     0.23066   0.27407   0.93792   0.00000  Uiso   1.00
C196   C     0.29610   0.26496   0.98093   0.00000  Uiso   1.00
C197   C     0.37293   0.24135   0.06024   0.00000  Uiso   1.00
C198   C     0.38445   0.34014   0.84388   0.00000  Uiso   1.00
C199   C     0.30724   0.37391   0.84388   0.00000  Uiso   1.00
C200   C     0.32663   0.41542   0.84387   0.00000  Uiso   1.00
C201   C     0.24580   0.44140   0.84386   0.00000  Uiso   1.00
C202   C     0.36207   0.31376   0.79280   0.00000  Uiso   1.00
C203   C     0.42757   0.30470   0.74984   0.00000  Uiso   1.00
C204   C     0.39292   0.28004   0.70683   0.00000  Uiso   1.00
C205   C     0.36208   0.31377   0.89497   0.00000  Uiso   1.00
C206   C     0.42759   0.30469   0.93792   0.00000  Uiso   1.00
C207   C     0.39296   0.28002   0.98092   0.00000  Uiso   1.00
H208   H     0.13119   0.30076   0.84389   0.00000  Uiso   1.00
H209   H     0.05489   0.37316   0.84387   0.00000  Uiso   1.00
H210   H     0.15582   0.26245   0.74986   0.00000  Uiso   1.00
H211   H     0.15584   0.26245   0.93791   0.00000  Uiso   1.00
H212   H     0.01292   0.46006   0.84383   0.00000  Uiso   1.00
H213   H     0.22576   0.22661   0.64562   0.00000  Uiso   1.00
H214   H     0.22580   0.22660   0.04215   0.00000  Uiso   1.00
H215   H     0.45973   0.35184   0.84388   0.00000  Uiso   1.00
H216   H     0.40145   0.42705   0.84387   0.00000  Uiso   1.00
H217   H     0.50238   0.31633   0.74985   0.00000  Uiso   1.00
H218   H     0.50240   0.31633   0.93790   0.00000  Uiso   1.00
H219   H     0.29421   0.50380   0.84382   0.00000  Uiso   1.00
H220   H     0.50704   0.27034   0.64561   0.00000  Uiso   1.00
H221   H     0.50709   0.27033   0.04214   0.00000  Uiso   1.00
O222   O     0.10930   0.53048   0.84379   0.00000  Uiso   1.00
O223   O     0.38854   0.22419   0.58375   0.00000  Uiso   1.00
O224   O     0.38859   0.22418   0.10400   0.00000  Uiso   1.00
N225   N     0.08712   0.46004   0.84384   0.00000  Uiso   1.00
N226   N     0.28611   0.24177   0.65852   0.00000  Uiso   1.00
N227   N     0.28615   0.24175   0.02924   0.00000  Uiso   1.00
N228   N     0.23848   0.48357   0.84384   0.00000  Uiso   1.00
N229   N     0.43746   0.26530   0.65851   0.00000  Uiso   1.00
N230   N     0.43751   0.26529   0.02923   0.00000  Uiso   1.00
C231   C     0.20646   0.81246   0.34389   0.00000  Uiso   1.00
C232   C     0.21056   0.85889   0.34388   0.00000  Uiso   1.00
C233   C     0.12970   0.88481   0.34387   0.00000  Uiso   1.00
C234   C     0.14895   0.92635   0.34386   0.00000  Uiso   1.00
C235   C     0.14061   0.99614   0.34382   0.00000  Uiso   1.00
C236   C     0.26540   0.79874   0.29280   0.00000  Uiso   1.00
C237   C     0.23064   0.77408   0.24985   0.00000  Uiso   1.00
C238   C     0.29607   0.76498   0.20683   0.00000  Uiso   1.00
C239   C     0.37288   0.74136   0.12751   0.00000  Uiso   1.00
C240   C     0.26540   0.79874   0.39497   0.00000  Uiso   1.00
C241   C     0.23066   0.77407   0.43792   0.00000  Uiso   1.00
C242   C     0.29610   0.76496   0.48093   0.00000  Uiso   1.00
C243   C     0.37293   0.74135   0.56024   0.00000  Uiso   1.00
C244   C     0.38445   0.84014   0.34388   0.00000  Uiso   1.00
C245   C     0.30724   0.87391   0.34388   0.00000  Uiso   1.00
C246   C     0.32663   0.91542   0.34387   0.00000  Uiso   1.00
C247   C     0.24580   0.94140   0.34386   0.00000  Uiso   1.00
C248   C     0.36207   0.81376   0.29280   0.00000  Uiso   1.00
C249   C     0.42757   0.80470   0.24984   0.00000  Uiso   1.00
C250   C     0.39292   0.78004   0.20683   0.00000  Uiso   1.00
C251   C     0.36208   0.81377   0.39497   0.00000  Uiso   1.00
C252   C     0.42759   0.80469   0.43792   0.00000  Uiso   1.00
C253   C     0.39296   0.78002   0.48092   0.00000  Uiso   1.00
H254   H     0.13119   0.80076   0.34389   0.00000  Uiso   1.00
H255   H     0.05489   0.87316   0.34387   0.00000  Uiso   1.00
H256   H     0.15582   0.76245   0.24986   0.00000  Uiso   1.00
H257   H     0.15584   0.76245   0.43791   0.00000  Uiso   1.00
H258   H     0.01292   0.96006   0.34383   0.00000  Uiso   1.00
H259   H     0.22576   0.72661   0.14562   0.00000  Uiso   1.00
H260   H     0.22580   0.72660   0.54215   0.00000  Uiso   1.00
H261   H     0.45973   0.85184   0.34388   0.00000  Uiso   1.00
H262   H     0.40145   0.92705   0.34387   0.00000  Uiso   1.00
H263   H     0.50238   0.81633   0.24985   0.00000  Uiso   1.00
H264   H     0.50240   0.81633   0.43790   0.00000  Uiso   1.00
H265   H     0.29421   0.00380   0.34382   0.00000  Uiso   1.00
H266   H     0.50704   0.77034   0.14561   0.00000  Uiso   1.00
H267   H     0.50709   0.77033   0.54214   0.00000  Uiso   1.00
O268   O     0.10930   0.03048   0.34379   0.00000  Uiso   1.00
O269   O     0.38854   0.72419   0.08375   0.00000  Uiso   1.00
O270   O     0.38859   0.72418   0.60400   0.00000  Uiso   1.00
N271   N     0.08712   0.96004   0.34384   0.00000  Uiso   1.00
N272   N     0.28611   0.74177   0.15852   0.00000  Uiso   1.00
N273   N     0.28615   0.74175   0.52924   0.00000  Uiso   1.00
N274   N     0.23848   0.98357   0.34384   0.00000  Uiso   1.00
N275   N     0.43746   0.76530   0.15851   0.00000  Uiso   1.00
N276   N     0.43751   0.76529   0.52923   0.00000  Uiso   1.00
C277   C     0.79354   0.68754   0.84389   0.00000  Uiso   1.00
C278   C     0.78944   0.64111   0.84388   0.00000  Uiso   1.00
C279   C     0.87030   0.61519   0.84387   0.00000  Uiso   1.00
C280   C     0.85105   0.57365   0.84386   0.00000  Uiso   1.00
C281   C     0.85939   0.50386   0.84382   0.00000  Uiso   1.00
C282   C     0.73460   0.70126   0.79280   0.00000  Uiso   1.00
C283   C     0.76936   0.72592   0.74985   0.00000  Uiso   1.00
C284   C     0.70393   0.73502   0.70683   0.00000  Uiso   1.00
C285   C     0.62712   0.75864   0.62751   0.00000  Uiso   1.00
C286   C     0.73460   0.70126   0.89497   0.00000  Uiso   1.00
C287   C     0.76934   0.72593   0.93792   0.00000  Uiso   1.00
C288   C     0.70390   0.73504   0.98093   0.00000  Uiso   1.00
C289   C     0.62707   0.75865   0.06024   0.00000  Uiso   1.00
C290   C     0.61555   0.65986   0.84388   0.00000  Uiso   1.00
C291   C     0.69276   0.62609   0.84388   0.00000  Uiso   1.00
C292   C     0.67337   0.58458   0.84387   0.00000  Uiso   1.00
C293   C     0.75420   0.55860   0.84386   0.00000  Uiso   1.00
C294   C     0.63793   0.68624   0.79280   0.00000  Uiso   1.00
C295   C     0.57243   0.69530   0.74984   0.00000  Uiso   1.00
C296   C     0.60708   0.71996   0.70683   0.00000  Uiso   1.00
C297   C     0.63792   0.68623   0.89497   0.00000  Uiso   1.00
C298   C     0.57241   0.69531   0.93792   0.00000  Uiso   1.00
C299   C     0.60704   0.71998   0.98092   0.00000  Uiso   1.00
H300   H     0.86881   0.69924   0.84389   0.00000  Uiso   1.00
H301   H     0.94511   0.62684   0.84387   0.00000  Uiso   1.00
H302   H     0.84418   0.73755   0.74986   0.00000  Uiso   1.00
H303   H     0.84416   0.73755   0.93791   0.00000  Uiso   1.00
H304   H     0.98708   0.53994   0.84383   0.00000  Uiso   1.00
H305   H     0.77424   0.77339   0.64562   0.00000  Uiso   1.00
H306   H     0.77420   0.77340   0.04215   0.00000  Uiso   1.00
H307   H     0.54027   0.64816   0.84388   0.00000  Uiso   1.00
H308   H     0.59855   0.57295   0.84387   0.00000  Uiso   1.00
H309   H     0.49762   0.68367   0.74985   0.00000  Uiso   1.00
H310   H     0.49760   0.68367   0.93790   0.00000  Uiso   1.00
H311   H     0.70579   0.49620   0.84382   0.00000  Uiso   1.00
H312   H     0.49296   0.72966   0.64561   0.00000  Uiso   1.00
H313   H     0.49291   0.72967   0.04214   0.00000  Uiso   1.00
O314   O     0.89070   0.46952   0.84379   0.00000  Uiso   1.00
O315   O     0.61146   0.77581   0.58375   0.00000  Uiso   1.00
O316   O     0.61141   0.77582   0.10400   0.00000  Uiso   1.00
N317   N     0.91288   0.53996   0.84384   0.00000  Uiso   1.00
N318   N     0.71389   0.75823   0.65852   0.00000  Uiso   1.00
N319   N     0.71385   0.75825   0.02924   0.00000  Uiso   1.00
N320   N     0.76152   0.51643   0.84384   0.00000  Uiso   1.00
N321   N     0.56254   0.73470   0.65851   0.00000  Uiso   1.00
N322   N     0.56249   0.73471   0.02923   0.00000  Uiso   1.00
C323   C     0.79354   0.18754   0.34389   0.00000  Uiso   1.00
C324   C     0.78944   0.14111   0.34388   0.00000  Uiso   1.00
C325   C     0.87030   0.11519   0.34387   0.00000  Uiso   1.00
C326   C     0.85105   0.07365   0.34386   0.00000  Uiso   1.00
C327   C     0.85939   0.00386   0.34382   0.00000  Uiso   1.00
C328   C     0.73460   0.20126   0.29280   0.00000  Uiso   1.00
C329   C     0.76936   0.22592   0.24985   0.00000  Uiso   1.00
C330   C     0.70393   0.23502   0.20683   0.00000  Uiso   1.00
C331   C     0.62712   0.25864   0.12751   0.00000  Uiso   1.00
C332   C     0.73460   0.20126   0.39497   0.00000  Uiso   1.00
C333   C     0.76934   0.22593   0.43792   0.00000  Uiso   1.00
C334   C     0.70390   0.23504   0.48093   0.00000  Uiso   1.00
C335   C     0.62707   0.25865   0.56024   0.00000  Uiso   1.00
C336   C     0.61555   0.15986   0.34388   0.00000  Uiso   1.00
C337   C     0.69276   0.12609   0.34388   0.00000  Uiso   1.00
C338   C     0.67337   0.08458   0.34387   0.00000  Uiso   1.00
C339   C     0.75420   0.05860   0.34386   0.00000  Uiso   1.00
C340   C     0.63793   0.18624   0.29280   0.00000  Uiso   1.00
C341   C     0.57243   0.19530   0.24984   0.00000  Uiso   1.00
C342   C     0.60708   0.21996   0.20683   0.00000  Uiso   1.00
C343   C     0.63792   0.18623   0.39497   0.00000  Uiso   1.00
C344   C     0.57241   0.19531   0.43792   0.00000  Uiso   1.00
C345   C     0.60704   0.21998   0.48092   0.00000  Uiso   1.00
H346   H     0.86881   0.19924   0.34389   0.00000  Uiso   1.00
H347   H     0.94511   0.12684   0.34387   0.00000  Uiso   1.00
H348   H     0.84418   0.23755   0.24986   0.00000  Uiso   1.00
H349   H     0.84416   0.23755   0.43791   0.00000  Uiso   1.00
H350   H     0.98708   0.03994   0.34383   0.00000  Uiso   1.00
H351   H     0.77424   0.27339   0.14562   0.00000  Uiso   1.00
H352   H     0.77420   0.27340   0.54215   0.00000  Uiso   1.00
H353   H     0.54027   0.14816   0.34388   0.00000  Uiso   1.00
H354   H     0.59855   0.07295   0.34387   0.00000  Uiso   1.00
H355   H     0.49762   0.18367   0.24985   0.00000  Uiso   1.00
H356   H     0.49760   0.18367   0.43790   0.00000  Uiso   1.00
H357   H     0.70579   0.99620   0.34382   0.00000  Uiso   1.00
H358   H     0.49296   0.22966   0.14561   0.00000  Uiso   1.00
H359   H     0.49291   0.22967   0.54214   0.00000  Uiso   1.00
O360   O     0.89070   0.96952   0.34379   0.00000  Uiso   1.00
O361   O     0.61146   0.27581   0.08375   0.00000  Uiso   1.00
O362   O     0.61141   0.27582   0.60400   0.00000  Uiso   1.00
N363   N     0.91288   0.03996   0.34384   0.00000  Uiso   1.00
N364   N     0.71389   0.25823   0.15852   0.00000  Uiso   1.00
N365   N     0.71385   0.25825   0.52924   0.00000  Uiso   1.00
N366   N     0.76152   0.01643   0.34384   0.00000  Uiso   1.00
N367   N     0.56254   0.23470   0.15851   0.00000  Uiso   1.00
N368   N     0.56249   0.23471   0.52923   0.00000  Uiso   1.00
