data_job_03788
_audit_creation_date              2018-12-19
_audit_creation_method            'Materials Studio'
_symmetry_space_group_name_H-M    'P1'
_symmetry_Int_Tables_number       1
_symmetry_cell_setting            triclinic
loop_
_symmetry_equiv_pos_as_xyz
  x,y,z
_cell_length_a                    15.0392
_cell_length_b                    24.9834
_cell_length_c                    18.3176
_cell_angle_alpha                 90.0000
_cell_angle_beta                  82.0816
_cell_angle_gamma                 90.0000
loop_
_atom_site_label
_atom_site_type_symbol
_atom_site_fract_x
_atom_site_fract_y
_atom_site_fract_z
_atom_site_U_iso_or_equiv
_atom_site_adp_type
_atom_site_occupancy
C1     C     0.60657   0.83254   0.38843   0.00000  Uiso   1.00
C2     C     0.63187   0.84348   0.46484   0.00000  Uiso   1.00
C3     C     0.61535   0.80969   0.52533   0.00000  Uiso   1.00
C4     C     0.64372   0.82696   0.59037   0.00000  Uiso   1.00
C5     C     0.67637   0.83645   0.70838   0.00000  Uiso   1.00
C6     C     0.54894   0.87979   0.37084   0.00000  Uiso   1.00
C7     C     0.46269   0.87653   0.35228   0.00000  Uiso   1.00
C8     C     0.42125   0.92437   0.33818   0.00000  Uiso   1.00
C9     C     0.32516   0.99024   0.31020   0.00000  Uiso   1.00
C10    C     0.69356   0.83655   0.33504   0.00000  Uiso   1.00
C11    C     0.72891   0.79694   0.28637   0.00000  Uiso   1.00
C12    C     0.80923   0.80838   0.24212   0.00000  Uiso   1.00
C13    C     0.93770   0.80710   0.15856   0.00000  Uiso   1.00
C14    C     0.68634   0.92328   0.39637   0.00000  Uiso   1.00
C15    C     0.67520   0.89276   0.46916   0.00000  Uiso   1.00
C16    C     0.70360   0.91009   0.53412   0.00000  Uiso   1.00
C17    C     0.68713   0.87633   0.59470   0.00000  Uiso   1.00
C18    C     0.59226   0.92908   0.37516   0.00000  Uiso   1.00
C19    C     0.55094   0.97693   0.36108   0.00000  Uiso   1.00
C20    C     0.46465   0.97375   0.34251   0.00000  Uiso   1.00
C21    C     0.73689   0.88583   0.33936   0.00000  Uiso   1.00
C22    C     0.81716   0.89733   0.29517   0.00000  Uiso   1.00
C23    C     0.85263   0.85775   0.24645   0.00000  Uiso   1.00
H24    H     0.57284   0.79417   0.38506   0.00000  Uiso   1.00
H25    H     0.58181   0.77155   0.52197   0.00000  Uiso   1.00
H26    H     0.42918   0.83839   0.34894   0.00000  Uiso   1.00
H27    H     0.69537   0.75881   0.28305   0.00000  Uiso   1.00
H28    H     0.61084   0.76822   0.67566   0.00000  Uiso   1.00
H29    H     0.28902   0.90914   0.31080   0.00000  Uiso   1.00
H30    H     0.85032   0.74133   0.17185   0.00000  Uiso   1.00
H31    H     0.72007   0.96166   0.39974   0.00000  Uiso   1.00
H32    H     0.73713   0.94823   0.53745   0.00000  Uiso   1.00
H33    H     0.58449   0.01506   0.36442   0.00000  Uiso   1.00
H34    H     0.85067   0.93548   0.29853   0.00000  Uiso   1.00
H35    H     0.73689   0.91162   0.68823   0.00000  Uiso   1.00
H36    H     0.41507   0.05254   0.32336   0.00000  Uiso   1.00
H37    H     0.97637   0.88472   0.18442   0.00000  Uiso   1.00
O38    O     0.68240   0.82807   0.77228   0.00000  Uiso   1.00
O39    O     0.26019   0.01295   0.29358   0.00000  Uiso   1.00
O40    O     0.99661   0.79278   0.11128   0.00000  Uiso   1.00
N41    N     0.63818   0.80381   0.65972   0.00000  Uiso   1.00
N42    N     0.33729   0.93556   0.31860   0.00000  Uiso   1.00
N43    N     0.86205   0.77867   0.18868   0.00000  Uiso   1.00
N44    N     0.70601   0.88097   0.66648   0.00000  Uiso   1.00
N45    N     0.40512   0.01272   0.32537   0.00000  Uiso   1.00
N46    N     0.92988   0.85583   0.19544   0.00000  Uiso   1.00
C47    C     0.10657   0.33254   0.38843   0.00000  Uiso   1.00
C48    C     0.13187   0.34348   0.46484   0.00000  Uiso   1.00
C49    C     0.11535   0.30969   0.52533   0.00000  Uiso   1.00
C50    C     0.14372   0.32696   0.59037   0.00000  Uiso   1.00
C51    C     0.17637   0.33645   0.70838   0.00000  Uiso   1.00
C52    C     0.04894   0.37979   0.37084   0.00000  Uiso   1.00
C53    C     0.96269   0.37653   0.35228   0.00000  Uiso   1.00
C54    C     0.92125   0.42437   0.33818   0.00000  Uiso   1.00
C55    C     0.82516   0.49024   0.31020   0.00000  Uiso   1.00
C56    C     0.19356   0.33655   0.33504   0.00000  Uiso   1.00
C57    C     0.22891   0.29694   0.28637   0.00000  Uiso   1.00
C58    C     0.30923   0.30838   0.24212   0.00000  Uiso   1.00
C59    C     0.43770   0.30710   0.15856   0.00000  Uiso   1.00
C60    C     0.18634   0.42328   0.39637   0.00000  Uiso   1.00
C61    C     0.17520   0.39276   0.46916   0.00000  Uiso   1.00
C62    C     0.20360   0.41009   0.53412   0.00000  Uiso   1.00
C63    C     0.18713   0.37633   0.59470   0.00000  Uiso   1.00
C64    C     0.09226   0.42908   0.37516   0.00000  Uiso   1.00
C65    C     0.05094   0.47693   0.36108   0.00000  Uiso   1.00
C66    C     0.96465   0.47375   0.34251   0.00000  Uiso   1.00
C67    C     0.23689   0.38583   0.33936   0.00000  Uiso   1.00
C68    C     0.31716   0.39733   0.29517   0.00000  Uiso   1.00
C69    C     0.35263   0.35775   0.24645   0.00000  Uiso   1.00
H70    H     0.07284   0.29417   0.38506   0.00000  Uiso   1.00
H71    H     0.08181   0.27155   0.52197   0.00000  Uiso   1.00
H72    H     0.92918   0.33839   0.34894   0.00000  Uiso   1.00
H73    H     0.19537   0.25881   0.28305   0.00000  Uiso   1.00
H74    H     0.11084   0.26822   0.67566   0.00000  Uiso   1.00
H75    H     0.78902   0.40914   0.31080   0.00000  Uiso   1.00
H76    H     0.35032   0.24133   0.17185   0.00000  Uiso   1.00
H77    H     0.22007   0.46166   0.39974   0.00000  Uiso   1.00
H78    H     0.23713   0.44823   0.53745   0.00000  Uiso   1.00
H79    H     0.08449   0.51506   0.36442   0.00000  Uiso   1.00
H80    H     0.35067   0.43548   0.29853   0.00000  Uiso   1.00
H81    H     0.23689   0.41162   0.68823   0.00000  Uiso   1.00
H82    H     0.91507   0.55254   0.32336   0.00000  Uiso   1.00
H83    H     0.47637   0.38472   0.18442   0.00000  Uiso   1.00
O84    O     0.18240   0.32807   0.77228   0.00000  Uiso   1.00
O85    O     0.76019   0.51295   0.29358   0.00000  Uiso   1.00
O86    O     0.49661   0.29278   0.11128   0.00000  Uiso   1.00
N87    N     0.13818   0.30381   0.65972   0.00000  Uiso   1.00
N88    N     0.83729   0.43556   0.31860   0.00000  Uiso   1.00
N89    N     0.36205   0.27867   0.18868   0.00000  Uiso   1.00
N90    N     0.20601   0.38097   0.66648   0.00000  Uiso   1.00
N91    N     0.90512   0.51272   0.32537   0.00000  Uiso   1.00
N92    N     0.42988   0.35583   0.19544   0.00000  Uiso   1.00
C93    C     0.39343   0.83254   0.11157   0.00000  Uiso   1.00
C94    C     0.36813   0.84348   0.03516   0.00000  Uiso   1.00
C95    C     0.38465   0.80969   0.97467   0.00000  Uiso   1.00
C96    C     0.35628   0.82696   0.90963   0.00000  Uiso   1.00
C97    C     0.32363   0.83645   0.79162   0.00000  Uiso   1.00
C98    C     0.45106   0.87979   0.12916   0.00000  Uiso   1.00
C99    C     0.53731   0.87653   0.14772   0.00000  Uiso   1.00
C100   C     0.57875   0.92437   0.16182   0.00000  Uiso   1.00
C101   C     0.67484   0.99024   0.18980   0.00000  Uiso   1.00
C102   C     0.30644   0.83655   0.16496   0.00000  Uiso   1.00
C103   C     0.27109   0.79694   0.21363   0.00000  Uiso   1.00
C104   C     0.19077   0.80838   0.25788   0.00000  Uiso   1.00
C105   C     0.06230   0.80710   0.34144   0.00000  Uiso   1.00
C106   C     0.31366   0.92328   0.10363   0.00000  Uiso   1.00
C107   C     0.32480   0.89276   0.03084   0.00000  Uiso   1.00
C108   C     0.29640   0.91009   0.96588   0.00000  Uiso   1.00
C109   C     0.31287   0.87633   0.90530   0.00000  Uiso   1.00
C110   C     0.40774   0.92908   0.12484   0.00000  Uiso   1.00
C111   C     0.44906   0.97693   0.13892   0.00000  Uiso   1.00
C112   C     0.53535   0.97375   0.15749   0.00000  Uiso   1.00
C113   C     0.26311   0.88583   0.16064   0.00000  Uiso   1.00
C114   C     0.18284   0.89733   0.20483   0.00000  Uiso   1.00
C115   C     0.14737   0.85775   0.25355   0.00000  Uiso   1.00
H116   H     0.42716   0.79417   0.11494   0.00000  Uiso   1.00
H117   H     0.41819   0.77155   0.97803   0.00000  Uiso   1.00
H118   H     0.57082   0.83839   0.15106   0.00000  Uiso   1.00
H119   H     0.30463   0.75881   0.21695   0.00000  Uiso   1.00
H120   H     0.38916   0.76822   0.82434   0.00000  Uiso   1.00
H121   H     0.71098   0.90914   0.18920   0.00000  Uiso   1.00
H122   H     0.14968   0.74133   0.32815   0.00000  Uiso   1.00
H123   H     0.27993   0.96166   0.10026   0.00000  Uiso   1.00
H124   H     0.26287   0.94823   0.96255   0.00000  Uiso   1.00
H125   H     0.41551   0.01506   0.13558   0.00000  Uiso   1.00
H126   H     0.14933   0.93548   0.20147   0.00000  Uiso   1.00
H127   H     0.26311   0.91162   0.81177   0.00000  Uiso   1.00
H128   H     0.58493   0.05254   0.17664   0.00000  Uiso   1.00
H129   H     0.02363   0.88472   0.31558   0.00000  Uiso   1.00
O130   O     0.31760   0.82807   0.72772   0.00000  Uiso   1.00
O131   O     0.73981   0.01295   0.20642   0.00000  Uiso   1.00
O132   O     0.00339   0.79278   0.38872   0.00000  Uiso   1.00
N133   N     0.36182   0.80381   0.84028   0.00000  Uiso   1.00
N134   N     0.66271   0.93556   0.18140   0.00000  Uiso   1.00
N135   N     0.13795   0.77867   0.31132   0.00000  Uiso   1.00
N136   N     0.29399   0.88097   0.83352   0.00000  Uiso   1.00
N137   N     0.59488   0.01272   0.17463   0.00000  Uiso   1.00
N138   N     0.07012   0.85583   0.30456   0.00000  Uiso   1.00
C139   C     0.89343   0.33254   0.11157   0.00000  Uiso   1.00
C140   C     0.86813   0.34348   0.03516   0.00000  Uiso   1.00
C141   C     0.88465   0.30969   0.97467   0.00000  Uiso   1.00
C142   C     0.85628   0.32696   0.90963   0.00000  Uiso   1.00
C143   C     0.82363   0.33645   0.79162   0.00000  Uiso   1.00
C144   C     0.95106   0.37979   0.12916   0.00000  Uiso   1.00
C145   C     0.03731   0.37653   0.14772   0.00000  Uiso   1.00
C146   C     0.07875   0.42437   0.16182   0.00000  Uiso   1.00
C147   C     0.17484   0.49024   0.18980   0.00000  Uiso   1.00
C148   C     0.80644   0.33655   0.16496   0.00000  Uiso   1.00
C149   C     0.77109   0.29694   0.21363   0.00000  Uiso   1.00
C150   C     0.69077   0.30838   0.25788   0.00000  Uiso   1.00
C151   C     0.56230   0.30710   0.34144   0.00000  Uiso   1.00
C152   C     0.81366   0.42328   0.10363   0.00000  Uiso   1.00
C153   C     0.82480   0.39276   0.03084   0.00000  Uiso   1.00
C154   C     0.79640   0.41009   0.96588   0.00000  Uiso   1.00
C155   C     0.81287   0.37633   0.90530   0.00000  Uiso   1.00
C156   C     0.90774   0.42908   0.12484   0.00000  Uiso   1.00
C157   C     0.94906   0.47693   0.13892   0.00000  Uiso   1.00
C158   C     0.03535   0.47375   0.15749   0.00000  Uiso   1.00
C159   C     0.76311   0.38583   0.16064   0.00000  Uiso   1.00
C160   C     0.68284   0.39733   0.20483   0.00000  Uiso   1.00
C161   C     0.64737   0.35775   0.25355   0.00000  Uiso   1.00
H162   H     0.92716   0.29417   0.11494   0.00000  Uiso   1.00
H163   H     0.91819   0.27155   0.97803   0.00000  Uiso   1.00
H164   H     0.07082   0.33839   0.15106   0.00000  Uiso   1.00
H165   H     0.80463   0.25881   0.21695   0.00000  Uiso   1.00
H166   H     0.88916   0.26822   0.82434   0.00000  Uiso   1.00
H167   H     0.21098   0.40914   0.18920   0.00000  Uiso   1.00
H168   H     0.64968   0.24133   0.32815   0.00000  Uiso   1.00
H169   H     0.77993   0.46166   0.10026   0.00000  Uiso   1.00
H170   H     0.76287   0.44823   0.96255   0.00000  Uiso   1.00
H171   H     0.91551   0.51506   0.13558   0.00000  Uiso   1.00
H172   H     0.64933   0.43548   0.20147   0.00000  Uiso   1.00
H173   H     0.76311   0.41162   0.81177   0.00000  Uiso   1.00
H174   H     0.08493   0.55254   0.17664   0.00000  Uiso   1.00
H175   H     0.52363   0.38472   0.31558   0.00000  Uiso   1.00
O176   O     0.81760   0.32807   0.72772   0.00000  Uiso   1.00
O177   O     0.23981   0.51295   0.20642   0.00000  Uiso   1.00
O178   O     0.50339   0.29278   0.38872   0.00000  Uiso   1.00
N179   N     0.86182   0.30381   0.84028   0.00000  Uiso   1.00
N180   N     0.16271   0.43556   0.18140   0.00000  Uiso   1.00
N181   N     0.63795   0.27867   0.31132   0.00000  Uiso   1.00
N182   N     0.79399   0.38097   0.83352   0.00000  Uiso   1.00
N183   N     0.09488   0.51272   0.17463   0.00000  Uiso   1.00
N184   N     0.57012   0.35583   0.30456   0.00000  Uiso   1.00
C185   C     0.39343   0.16746   0.61157   0.00000  Uiso   1.00
C186   C     0.36813   0.15652   0.53516   0.00000  Uiso   1.00
C187   C     0.38465   0.19031   0.47467   0.00000  Uiso   1.00
C188   C     0.35628   0.17304   0.40963   0.00000  Uiso   1.00
C189   C     0.32363   0.16355   0.29162   0.00000  Uiso   1.00
C190   C     0.45106   0.12021   0.62916   0.00000  Uiso   1.00
C191   C     0.53731   0.12347   0.64772   0.00000  Uiso   1.00
C192   C     0.57875   0.07563   0.66182   0.00000  Uiso   1.00
C193   C     0.67484   0.00976   0.68980   0.00000  Uiso   1.00
C194   C     0.30644   0.16345   0.66496   0.00000  Uiso   1.00
C195   C     0.27109   0.20306   0.71363   0.00000  Uiso   1.00
C196   C     0.19077   0.19162   0.75788   0.00000  Uiso   1.00
C197   C     0.06230   0.19290   0.84144   0.00000  Uiso   1.00
C198   C     0.31366   0.07672   0.60363   0.00000  Uiso   1.00
C199   C     0.32480   0.10724   0.53084   0.00000  Uiso   1.00
C200   C     0.29640   0.08991   0.46588   0.00000  Uiso   1.00
C201   C     0.31287   0.12367   0.40530   0.00000  Uiso   1.00
C202   C     0.40774   0.07092   0.62484   0.00000  Uiso   1.00
C203   C     0.44906   0.02307   0.63892   0.00000  Uiso   1.00
C204   C     0.53535   0.02625   0.65749   0.00000  Uiso   1.00
C205   C     0.26311   0.11417   0.66064   0.00000  Uiso   1.00
C206   C     0.18284   0.10267   0.70483   0.00000  Uiso   1.00
C207   C     0.14737   0.14225   0.75355   0.00000  Uiso   1.00
H208   H     0.42716   0.20583   0.61494   0.00000  Uiso   1.00
H209   H     0.41819   0.22845   0.47803   0.00000  Uiso   1.00
H210   H     0.57082   0.16161   0.65106   0.00000  Uiso   1.00
H211   H     0.30463   0.24119   0.71695   0.00000  Uiso   1.00
H212   H     0.38916   0.23178   0.32434   0.00000  Uiso   1.00
H213   H     0.71098   0.09086   0.68920   0.00000  Uiso   1.00
H214   H     0.14968   0.25867   0.82815   0.00000  Uiso   1.00
H215   H     0.27993   0.03834   0.60026   0.00000  Uiso   1.00
H216   H     0.26287   0.05177   0.46255   0.00000  Uiso   1.00
H217   H     0.41551   0.98494   0.63558   0.00000  Uiso   1.00
H218   H     0.14933   0.06452   0.70147   0.00000  Uiso   1.00
H219   H     0.26311   0.08838   0.31177   0.00000  Uiso   1.00
H220   H     0.58493   0.94746   0.67664   0.00000  Uiso   1.00
H221   H     0.02363   0.11528   0.81558   0.00000  Uiso   1.00
O222   O     0.31760   0.17193   0.22772   0.00000  Uiso   1.00
O223   O     0.73981   0.98705   0.70642   0.00000  Uiso   1.00
O224   O     0.00339   0.20722   0.88872   0.00000  Uiso   1.00
N225   N     0.36182   0.19619   0.34028   0.00000  Uiso   1.00
N226   N     0.66271   0.06444   0.68140   0.00000  Uiso   1.00
N227   N     0.13795   0.22133   0.81132   0.00000  Uiso   1.00
N228   N     0.29399   0.11903   0.33352   0.00000  Uiso   1.00
N229   N     0.59488   0.98728   0.67463   0.00000  Uiso   1.00
N230   N     0.07012   0.14417   0.80456   0.00000  Uiso   1.00
C231   C     0.89343   0.66746   0.61157   0.00000  Uiso   1.00
C232   C     0.86813   0.65652   0.53516   0.00000  Uiso   1.00
C233   C     0.88465   0.69031   0.47467   0.00000  Uiso   1.00
C234   C     0.85628   0.67304   0.40963   0.00000  Uiso   1.00
C235   C     0.82363   0.66355   0.29162   0.00000  Uiso   1.00
C236   C     0.95106   0.62021   0.62916   0.00000  Uiso   1.00
C237   C     0.03731   0.62347   0.64772   0.00000  Uiso   1.00
C238   C     0.07875   0.57563   0.66182   0.00000  Uiso   1.00
C239   C     0.17484   0.50976   0.68980   0.00000  Uiso   1.00
C240   C     0.80644   0.66345   0.66496   0.00000  Uiso   1.00
C241   C     0.77109   0.70306   0.71363   0.00000  Uiso   1.00
C242   C     0.69077   0.69162   0.75788   0.00000  Uiso   1.00
C243   C     0.56230   0.69290   0.84144   0.00000  Uiso   1.00
C244   C     0.81366   0.57672   0.60363   0.00000  Uiso   1.00
C245   C     0.82480   0.60724   0.53084   0.00000  Uiso   1.00
C246   C     0.79640   0.58991   0.46588   0.00000  Uiso   1.00
C247   C     0.81287   0.62367   0.40530   0.00000  Uiso   1.00
C248   C     0.90774   0.57092   0.62484   0.00000  Uiso   1.00
C249   C     0.94906   0.52307   0.63892   0.00000  Uiso   1.00
C250   C     0.03535   0.52625   0.65749   0.00000  Uiso   1.00
C251   C     0.76311   0.61417   0.66064   0.00000  Uiso   1.00
C252   C     0.68284   0.60267   0.70483   0.00000  Uiso   1.00
C253   C     0.64737   0.64225   0.75355   0.00000  Uiso   1.00
H254   H     0.92716   0.70583   0.61494   0.00000  Uiso   1.00
H255   H     0.91819   0.72845   0.47803   0.00000  Uiso   1.00
H256   H     0.07082   0.66161   0.65106   0.00000  Uiso   1.00
H257   H     0.80463   0.74119   0.71695   0.00000  Uiso   1.00
H258   H     0.88916   0.73178   0.32434   0.00000  Uiso   1.00
H259   H     0.21098   0.59086   0.68920   0.00000  Uiso   1.00
H260   H     0.64968   0.75867   0.82815   0.00000  Uiso   1.00
H261   H     0.77993   0.53834   0.60026   0.00000  Uiso   1.00
H262   H     0.76287   0.55177   0.46255   0.00000  Uiso   1.00
H263   H     0.91551   0.48494   0.63558   0.00000  Uiso   1.00
H264   H     0.64933   0.56452   0.70147   0.00000  Uiso   1.00
H265   H     0.76311   0.58838   0.31177   0.00000  Uiso   1.00
H266   H     0.08493   0.44746   0.67664   0.00000  Uiso   1.00
H267   H     0.52363   0.61528   0.81558   0.00000  Uiso   1.00
O268   O     0.81760   0.67193   0.22772   0.00000  Uiso   1.00
O269   O     0.23981   0.48705   0.70642   0.00000  Uiso   1.00
O270   O     0.50339   0.70722   0.88872   0.00000  Uiso   1.00
N271   N     0.86182   0.69619   0.34028   0.00000  Uiso   1.00
N272   N     0.16271   0.56444   0.68140   0.00000  Uiso   1.00
N273   N     0.63795   0.72133   0.81132   0.00000  Uiso   1.00
N274   N     0.79399   0.61903   0.33352   0.00000  Uiso   1.00
N275   N     0.09488   0.48728   0.67463   0.00000  Uiso   1.00
N276   N     0.57012   0.64417   0.80456   0.00000  Uiso   1.00
C277   C     0.60657   0.16746   0.88843   0.00000  Uiso   1.00
C278   C     0.63187   0.15652   0.96484   0.00000  Uiso   1.00
C279   C     0.61535   0.19031   0.02533   0.00000  Uiso   1.00
C280   C     0.64372   0.17304   0.09037   0.00000  Uiso   1.00
C281   C     0.67637   0.16355   0.20838   0.00000  Uiso   1.00
C282   C     0.54894   0.12021   0.87084   0.00000  Uiso   1.00
C283   C     0.46269   0.12347   0.85228   0.00000  Uiso   1.00
C284   C     0.42125   0.07563   0.83818   0.00000  Uiso   1.00
C285   C     0.32516   0.00976   0.81020   0.00000  Uiso   1.00
C286   C     0.69356   0.16345   0.83504   0.00000  Uiso   1.00
C287   C     0.72891   0.20306   0.78637   0.00000  Uiso   1.00
C288   C     0.80923   0.19162   0.74212   0.00000  Uiso   1.00
C289   C     0.93770   0.19290   0.65856   0.00000  Uiso   1.00
C290   C     0.68634   0.07672   0.89637   0.00000  Uiso   1.00
C291   C     0.67520   0.10724   0.96916   0.00000  Uiso   1.00
C292   C     0.70360   0.08991   0.03412   0.00000  Uiso   1.00
C293   C     0.68713   0.12367   0.09470   0.00000  Uiso   1.00
C294   C     0.59226   0.07092   0.87516   0.00000  Uiso   1.00
C295   C     0.55094   0.02307   0.86108   0.00000  Uiso   1.00
C296   C     0.46465   0.02625   0.84251   0.00000  Uiso   1.00
C297   C     0.73689   0.11417   0.83936   0.00000  Uiso   1.00
C298   C     0.81716   0.10267   0.79517   0.00000  Uiso   1.00
C299   C     0.85263   0.14225   0.74645   0.00000  Uiso   1.00
H300   H     0.57284   0.20583   0.88506   0.00000  Uiso   1.00
H301   H     0.58181   0.22845   0.02197   0.00000  Uiso   1.00
H302   H     0.42918   0.16161   0.84894   0.00000  Uiso   1.00
H303   H     0.69537   0.24119   0.78305   0.00000  Uiso   1.00
H304   H     0.61084   0.23178   0.17566   0.00000  Uiso   1.00
H305   H     0.28902   0.09086   0.81080   0.00000  Uiso   1.00
H306   H     0.85032   0.25867   0.67185   0.00000  Uiso   1.00
H307   H     0.72007   0.03834   0.89974   0.00000  Uiso   1.00
H308   H     0.73713   0.05177   0.03745   0.00000  Uiso   1.00
H309   H     0.58449   0.98494   0.86442   0.00000  Uiso   1.00
H310   H     0.85067   0.06452   0.79853   0.00000  Uiso   1.00
H311   H     0.73689   0.08838   0.18823   0.00000  Uiso   1.00
H312   H     0.41507   0.94746   0.82336   0.00000  Uiso   1.00
H313   H     0.97637   0.11528   0.68442   0.00000  Uiso   1.00
O314   O     0.68240   0.17193   0.27228   0.00000  Uiso   1.00
O315   O     0.26019   0.98705   0.79358   0.00000  Uiso   1.00
O316   O     0.99661   0.20722   0.61128   0.00000  Uiso   1.00
N317   N     0.63818   0.19619   0.15972   0.00000  Uiso   1.00
N318   N     0.33729   0.06444   0.81860   0.00000  Uiso   1.00
N319   N     0.86205   0.22133   0.68868   0.00000  Uiso   1.00
N320   N     0.70601   0.11903   0.16648   0.00000  Uiso   1.00
N321   N     0.40512   0.98728   0.82537   0.00000  Uiso   1.00
N322   N     0.92988   0.14417   0.69544   0.00000  Uiso   1.00
C323   C     0.10657   0.66746   0.88843   0.00000  Uiso   1.00
C324   C     0.13187   0.65652   0.96484   0.00000  Uiso   1.00
C325   C     0.11535   0.69031   0.02533   0.00000  Uiso   1.00
C326   C     0.14372   0.67304   0.09037   0.00000  Uiso   1.00
C327   C     0.17637   0.66355   0.20838   0.00000  Uiso   1.00
C328   C     0.04894   0.62021   0.87084   0.00000  Uiso   1.00
C329   C     0.96269   0.62347   0.85228   0.00000  Uiso   1.00
C330   C     0.92125   0.57563   0.83818   0.00000  Uiso   1.00
C331   C     0.82516   0.50976   0.81020   0.00000  Uiso   1.00
C332   C     0.19356   0.66345   0.83504   0.00000  Uiso   1.00
C333   C     0.22891   0.70306   0.78637   0.00000  Uiso   1.00
C334   C     0.30923   0.69162   0.74212   0.00000  Uiso   1.00
C335   C     0.43770   0.69290   0.65856   0.00000  Uiso   1.00
C336   C     0.18634   0.57672   0.89637   0.00000  Uiso   1.00
C337   C     0.17520   0.60724   0.96916   0.00000  Uiso   1.00
C338   C     0.20360   0.58991   0.03412   0.00000  Uiso   1.00
C339   C     0.18713   0.62367   0.09470   0.00000  Uiso   1.00
C340   C     0.09226   0.57092   0.87516   0.00000  Uiso   1.00
C341   C     0.05094   0.52307   0.86108   0.00000  Uiso   1.00
C342   C     0.96465   0.52625   0.84251   0.00000  Uiso   1.00
C343   C     0.23689   0.61417   0.83936   0.00000  Uiso   1.00
C344   C     0.31716   0.60267   0.79517   0.00000  Uiso   1.00
C345   C     0.35263   0.64225   0.74645   0.00000  Uiso   1.00
H346   H     0.07284   0.70583   0.88506   0.00000  Uiso   1.00
H347   H     0.08181   0.72845   0.02197   0.00000  Uiso   1.00
H348   H     0.92918   0.66161   0.84894   0.00000  Uiso   1.00
H349   H     0.19537   0.74119   0.78305   0.00000  Uiso   1.00
H350   H     0.11084   0.73178   0.17566   0.00000  Uiso   1.00
H351   H     0.78902   0.59086   0.81080   0.00000  Uiso   1.00
H352   H     0.35032   0.75867   0.67185   0.00000  Uiso   1.00
H353   H     0.22007   0.53834   0.89974   0.00000  Uiso   1.00
H354   H     0.23713   0.55177   0.03745   0.00000  Uiso   1.00
H355   H     0.08449   0.48494   0.86442   0.00000  Uiso   1.00
H356   H     0.35067   0.56452   0.79853   0.00000  Uiso   1.00
H357   H     0.23689   0.58838   0.18823   0.00000  Uiso   1.00
H358   H     0.91507   0.44746   0.82336   0.00000  Uiso   1.00
H359   H     0.47637   0.61528   0.68442   0.00000  Uiso   1.00
O360   O     0.18240   0.67193   0.27228   0.00000  Uiso   1.00
O361   O     0.76019   0.48705   0.79358   0.00000  Uiso   1.00
O362   O     0.49661   0.70722   0.61128   0.00000  Uiso   1.00
N363   N     0.13818   0.69619   0.15972   0.00000  Uiso   1.00
N364   N     0.83729   0.56444   0.81860   0.00000  Uiso   1.00
N365   N     0.36205   0.72133   0.68868   0.00000  Uiso   1.00
N366   N     0.20601   0.61903   0.16648   0.00000  Uiso   1.00
N367   N     0.90512   0.48728   0.82537   0.00000  Uiso   1.00
N368   N     0.42988   0.64417   0.69544   0.00000  Uiso   1.00
