data_job_06686
_audit_creation_date              2018-12-19
_audit_creation_method            'Materials Studio'
_symmetry_space_group_name_H-M    'P1'
_symmetry_Int_Tables_number       1
_symmetry_cell_setting            triclinic
loop_
_symmetry_equiv_pos_as_xyz
  x,y,z
_cell_length_a                    21.4178
_cell_length_b                    22.6990
_cell_length_c                    22.8984
_cell_angle_alpha                 92.7645
_cell_angle_beta                  113.5883
_cell_angle_gamma                 64.4415
loop_
_atom_site_label
_atom_site_type_symbol
_atom_site_fract_x
_atom_site_fract_y
_atom_site_fract_z
_atom_site_U_iso_or_equiv
_atom_site_adp_type
_atom_site_occupancy
C1     C     0.73288   0.08857   0.98907   0.00000  Uiso   1.00
C2     C     0.76966   0.11035   0.95526   0.00000  Uiso   1.00
C3     C     0.83615   0.11730   0.98541   0.00000  Uiso   1.00
C4     C     0.86045   0.13778   0.94597   0.00000  Uiso   1.00
C5     C     0.92375   0.16965   0.90370   0.00000  Uiso   1.00
C6     C     0.65147   0.14329   0.96706   0.00000  Uiso   1.00
C7     C     0.61858   0.17793   0.00714   0.00000  Uiso   1.00
C8     C     0.54337   0.22613   0.97763   0.00000  Uiso   1.00
C9     C     0.42315   0.30910   0.95369   0.00000  Uiso   1.00
C10    C     0.72604   0.02853   0.96014   0.00000  Uiso   1.00
C11    C     0.75583   0.96667   0.99439   0.00000  Uiso   1.00
C12    C     0.74340   0.91825   0.95905   0.00000  Uiso   1.00
C13    C     0.73897   0.82304   0.92436   0.00000  Uiso   1.00
C14    C     0.65780   0.11257   0.86542   0.00000  Uiso   1.00
C15    C     0.72888   0.12339   0.88811   0.00000  Uiso   1.00
C16    C     0.75309   0.14386   0.84861   0.00000  Uiso   1.00
C17    C     0.81960   0.15084   0.87869   0.00000  Uiso   1.00
C18    C     0.61069   0.15633   0.89991   0.00000  Uiso   1.00
C19    C     0.53551   0.20449   0.87034   0.00000  Uiso   1.00
C20    C     0.50251   0.23919   0.91035   0.00000  Uiso   1.00
C21    C     0.68526   0.04156   0.89298   0.00000  Uiso   1.00
C22    C     0.67277   0.99323   0.85759   0.00000  Uiso   1.00
C23    C     0.70254   0.93132   0.89177   0.00000  Uiso   1.00
H24    H     0.76462   0.07842   0.04135   0.00000  Uiso   1.00
H25    H     0.86769   0.10721   0.03738   0.00000  Uiso   1.00
H26    H     0.65015   0.16782   0.05910   0.00000  Uiso   1.00
H27    H     0.78739   0.95660   0.04636   0.00000  Uiso   1.00
H28    H     0.96396   0.14491   0.00337   0.00000  Uiso   1.00
H29    H     0.50525   0.27269   0.04917   0.00000  Uiso   1.00
H30    H     0.79465   0.82729   0.02229   0.00000  Uiso   1.00
H31    H     0.62604   0.12273   0.81314   0.00000  Uiso   1.00
H32    H     0.72151   0.15395   0.79664   0.00000  Uiso   1.00
H33    H     0.50397   0.21456   0.81837   0.00000  Uiso   1.00
H34    H     0.64121   0.00334   0.80562   0.00000  Uiso   1.00
H35    H     0.84532   0.18284   0.80797   0.00000  Uiso   1.00
H36    H     0.38660   0.31063   0.85378   0.00000  Uiso   1.00
H37    H     0.67601   0.86522   0.82690   0.00000  Uiso   1.00
O38    O     0.96993   0.18363   0.89894   0.00000  Uiso   1.00
O39    O     0.36811   0.35127   0.95903   0.00000  Uiso   1.00
O40    O     0.74780   0.76692   0.92377   0.00000  Uiso   1.00
N41    N     0.92295   0.14954   0.95964   0.00000  Uiso   1.00
N42    N     0.49408   0.26902   0.00247   0.00000  Uiso   1.00
N43    N     0.76463   0.85261   0.97734   0.00000  Uiso   1.00
N44    N     0.85911   0.16995   0.85450   0.00000  Uiso   1.00
N45    N     0.43024   0.28943   0.89733   0.00000  Uiso   1.00
N46    N     0.70079   0.87302   0.87220   0.00000  Uiso   1.00
C47    C     0.17943   0.80751   0.05528   0.00000  Uiso   1.00
C48    C     0.16060   0.87640   0.07416   0.00000  Uiso   1.00
C49    C     0.21317   0.89737   0.11406   0.00000  Uiso   1.00
C50    C     0.18450   0.96230   0.12546   0.00000  Uiso   1.00
C51    C     0.16719   0.06282   0.15899   0.00000  Uiso   1.00
C52    C     0.13424   0.78232   0.07514   0.00000  Uiso   1.00
C53    C     0.16463   0.72418   0.11585   0.00000  Uiso   1.00
C54    C     0.11376   0.70991   0.12806   0.00000  Uiso   1.00
C55    C     0.05551   0.66434   0.16308   0.00000  Uiso   1.00
C56    C     0.14450   0.81726   0.98180   0.00000  Uiso   1.00
C57    C     0.18352   0.78849   0.94403   0.00000  Uiso   1.00
C58    C     0.14128   0.80362   0.87766   0.00000  Uiso   1.00
C59    C     0.09897   0.81230   0.76775   0.00000  Uiso   1.00
C60    C     0.03504   0.88553   0.00458   0.00000  Uiso   1.00
C61    C     0.08217   0.91878   0.04662   0.00000  Uiso   1.00
C62    C     0.05341   0.98369   0.05796   0.00000  Uiso   1.00
C63    C     0.10593   0.00476   0.09787   0.00000  Uiso   1.00
C64    C     0.05581   0.82470   0.04760   0.00000  Uiso   1.00
C65    C     0.00488   0.81050   0.05975   0.00000  Uiso   1.00
C66    C     0.03519   0.75236   0.10048   0.00000  Uiso   1.00
C67    C     0.06607   0.85964   0.95426   0.00000  Uiso   1.00
C68    C     0.02376   0.87481   0.88794   0.00000  Uiso   1.00
C69    C     0.06271   0.84607   0.85007   0.00000  Uiso   1.00
H70    H     0.24049   0.77451   0.07672   0.00000  Uiso   1.00
H71    H     0.27386   0.86456   0.13536   0.00000  Uiso   1.00
H72    H     0.22533   0.69139   0.13715   0.00000  Uiso   1.00
H73    H     0.24421   0.75569   0.96536   0.00000  Uiso   1.00
H74    H     0.27627   0.98307   0.18826   0.00000  Uiso   1.00
H75    H     0.17393   0.61794   0.19200   0.00000  Uiso   1.00
H76    H     0.21376   0.75352   0.82975   0.00000  Uiso   1.00
H77    H     0.97397   0.91852   0.98314   0.00000  Uiso   1.00
H78    H     0.99272   0.01648   0.03665   0.00000  Uiso   1.00
H79    H     0.94419   0.84331   0.03843   0.00000  Uiso   1.00
H80    H     0.96307   0.90761   0.86664   0.00000  Uiso   1.00
H81    H     0.04808   0.10638   0.10814   0.00000  Uiso   1.00
H82    H     0.94574   0.74123   0.11188   0.00000  Uiso   1.00
H83    H     0.98557   0.87682   0.74963   0.00000  Uiso   1.00
O84    O     0.17931   0.10656   0.18510   0.00000  Uiso   1.00
O85    O     0.04505   0.62750   0.19000   0.00000  Uiso   1.00
O86    O     0.09730   0.80539   0.71474   0.00000  Uiso   1.00
N87    N     0.21999   0.99865   0.16205   0.00000  Uiso   1.00
N88    N     0.12432   0.65728   0.16556   0.00000  Uiso   1.00
N89    N     0.16155   0.78402   0.82688   0.00000  Uiso   1.00
N90    N     0.09720   0.06500   0.11893   0.00000  Uiso   1.00
N91    N     0.00153   0.72363   0.12244   0.00000  Uiso   1.00
N92    N     0.03876   0.85037   0.78377   0.00000  Uiso   1.00
C93    C     0.02352   0.48933   0.02379   0.00000  Uiso   1.00
C94    C     0.02112   0.42306   0.02140   0.00000  Uiso   1.00
C95    C     0.00399   0.39557   0.06222   0.00000  Uiso   1.00
C96    C     0.00482   0.33447   0.05220   0.00000  Uiso   1.00
C97    C     0.99849   0.23647   0.05599   0.00000  Uiso   1.00
C98    C     0.10299   0.47470   0.03107   0.00000  Uiso   1.00
C99    C     0.15469   0.49063   0.08000   0.00000  Uiso   1.00
C100   C     0.22443   0.47302   0.07810   0.00000  Uiso   1.00
C101   C     0.34518   0.45523   0.09687   0.00000  Uiso   1.00
C102   C     0.96834   0.52939   0.95695   0.00000  Uiso   1.00
C103   C     0.90684   0.59132   0.94357   0.00000  Uiso   1.00
C104   C     0.86322   0.61975   0.87926   0.00000  Uiso   1.00
C105   C     0.77492   0.68688   0.78295   0.00000  Uiso   1.00
C106   C     0.05545   0.42971   0.93339   0.00000  Uiso   1.00
C107   C     0.03847   0.39067   0.97230   0.00000  Uiso   1.00
C108   C     0.03932   0.32961   0.96221   0.00000  Uiso   1.00
C109   C     0.02219   0.30203   0.00301   0.00000  Uiso   1.00
C110   C     0.12033   0.44231   0.98197   0.00000  Uiso   1.00
C111   C     0.19001   0.42467   0.97999   0.00000  Uiso   1.00
C112   C     0.24180   0.44058   0.02892   0.00000  Uiso   1.00
C113   C     0.98568   0.49700   0.90785   0.00000  Uiso   1.00
C114   C     0.94216   0.52535   0.84355   0.00000  Uiso   1.00
C115   C     0.88060   0.58731   0.83008   0.00000  Uiso   1.00
H116   H     0.01003   0.51454   0.06201   0.00000  Uiso   1.00
H117   H     0.99058   0.42064   0.10022   0.00000  Uiso   1.00
H118   H     0.14125   0.51570   0.11799   0.00000  Uiso   1.00
H119   H     0.89344   0.61636   0.98157   0.00000  Uiso   1.00
H120   H     0.97670   0.30224   0.12094   0.00000  Uiso   1.00
H121   H     0.29438   0.50269   0.15840   0.00000  Uiso   1.00
H122   H     0.77182   0.71497   0.87074   0.00000  Uiso   1.00
H123   H     0.06895   0.40450   0.89516   0.00000  Uiso   1.00
H124   H     0.05274   0.30456   0.92421   0.00000  Uiso   1.00
H125   H     0.20341   0.39962   0.94199   0.00000  Uiso   1.00
H126   H     0.95560   0.50028   0.80557   0.00000  Uiso   1.00
H127   H     0.02715   0.20802   0.97809   0.00000  Uiso   1.00
H128   H     0.34483   0.40848   0.01555   0.00000  Uiso   1.00
H129   H     0.82227   0.62075   0.72789   0.00000  Uiso   1.00
O130   O     0.99022   0.19136   0.07165   0.00000  Uiso   1.00
O131   O     0.40700   0.45436   0.12079   0.00000  Uiso   1.00
O132   O     0.72141   0.73285   0.74338   0.00000  Uiso   1.00
N133   N     0.99078   0.29379   0.08333   0.00000  Uiso   1.00
N134   N     0.28780   0.48119   0.11835   0.00000  Uiso   1.00
N135   N     0.79926   0.67966   0.84942   0.00000  Uiso   1.00
N136   N     0.01793   0.24309   0.00646   0.00000  Uiso   1.00
N137   N     0.31495   0.43049   0.04149   0.00000  Uiso   1.00
N138   N     0.82641   0.62896   0.77255   0.00000  Uiso   1.00
C139   C     0.79436   0.96589   0.37309   0.00000  Uiso   1.00
C140   C     0.82494   0.01687   0.38984   0.00000  Uiso   1.00
C141   C     0.78110   0.08470   0.38139   0.00000  Uiso   1.00
C142   C     0.81988   0.12294   0.39972   0.00000  Uiso   1.00
C143   C     0.85524   0.20645   0.42182   0.00000  Uiso   1.00
C144   C     0.83256   0.91772   0.43503   0.00000  Uiso   1.00
C145   C     0.79511   0.90218   0.46457   0.00000  Uiso   1.00
C146   C     0.84031   0.85695   0.52094   0.00000  Uiso   1.00
C147   C     0.88749   0.78649   0.61317   0.00000  Uiso   1.00
C148   C     0.82622   0.92695   0.32703   0.00000  Uiso   1.00
C149   C     0.78344   0.91915   0.26576   0.00000  Uiso   1.00
C150   C     0.82331   0.88167   0.23120   0.00000  Uiso   1.00
C151   C     0.86064   0.82555   0.15575   0.00000  Uiso   1.00
C152   C     0.94122   0.91317   0.42068   0.00000  Uiso   1.00
C153   C     0.90471   0.98823   0.41569   0.00000  Uiso   1.00
C154   C     0.94358   0.02637   0.43404   0.00000  Uiso   1.00
C155   C     0.89979   0.09425   0.42561   0.00000  Uiso   1.00
C156   C     0.91232   0.88908   0.46088   0.00000  Uiso   1.00
C157   C     0.95759   0.84385   0.51722   0.00000  Uiso   1.00
C158   C     0.92022   0.82826   0.54684   0.00000  Uiso   1.00
C159   C     0.90598   0.89831   0.35287   0.00000  Uiso   1.00
C160   C     0.94592   0.86083   0.31841   0.00000  Uiso   1.00
C161   C     0.90322   0.85299   0.25710   0.00000  Uiso   1.00
H162   H     0.73226   0.98818   0.35297   0.00000  Uiso   1.00
H163   H     0.71937   0.10685   0.36139   0.00000  Uiso   1.00
H164   H     0.73338   0.92435   0.44455   0.00000  Uiso   1.00
H165   H     0.72172   0.94132   0.24577   0.00000  Uiso   1.00
H166   H     0.74025   0.22578   0.38214   0.00000  Uiso   1.00
H167   H     0.76980   0.84096   0.55748   0.00000  Uiso   1.00
H168   H     0.74520   0.87675   0.13832   0.00000  Uiso   1.00
H169   H     0.00332   0.89087   0.44081   0.00000  Uiso   1.00
H170   H     0.00530   0.00420   0.45404   0.00000  Uiso   1.00
H171   H     0.01932   0.82170   0.53720   0.00000  Uiso   1.00
H172   H     0.00765   0.83868   0.33843   0.00000  Uiso   1.00
H173   H     0.97233   0.14246   0.45734   0.00000  Uiso   1.00
H174   H     0.00188   0.75764   0.63268   0.00000  Uiso   1.00
H175   H     0.97728   0.79343   0.21352   0.00000  Uiso   1.00
O176   O     0.85271   0.26043   0.42688   0.00000  Uiso   1.00
O177   O     0.89147   0.75555   0.65691   0.00000  Uiso   1.00
O178   O     0.85920   0.80251   0.10698   0.00000  Uiso   1.00
N179   N     0.79460   0.19062   0.39801   0.00000  Uiso   1.00
N180   N     0.82223   0.83084   0.56195   0.00000  Uiso   1.00
N181   N     0.79923   0.86429   0.17007   0.00000  Uiso   1.00
N182   N     0.91948   0.14579   0.43847   0.00000  Uiso   1.00
N183   N     0.94711   0.78601   0.60241   0.00000  Uiso   1.00
N184   N     0.92411   0.81946   0.21054   0.00000  Uiso   1.00
C185   C     0.00868   0.55699   0.52210   0.00000  Uiso   1.00
C186   C     0.02075   0.48644   0.51332   0.00000  Uiso   1.00
C187   C     0.07494   0.43049   0.55857   0.00000  Uiso   1.00
C188   C     0.07684   0.37046   0.54132   0.00000  Uiso   1.00
C189   C     0.10325   0.26150   0.53689   0.00000  Uiso   1.00
C190   C     0.92530   0.59661   0.51046   0.00000  Uiso   1.00
C191   C     0.89922   0.63331   0.55330   0.00000  Uiso   1.00
C192   C     0.82077   0.66604   0.53363   0.00000  Uiso   1.00
C193   C     0.69897   0.72817   0.52472   0.00000  Uiso   1.00
C194   C     0.01627   0.58304   0.46639   0.00000  Uiso   1.00
C195   C     0.06667   0.60835   0.47216   0.00000  Uiso   1.00
C196   C     0.06479   0.62966   0.41539   0.00000  Uiso   1.00
C197   C     0.08424   0.67072   0.33805   0.00000  Uiso   1.00
C198   C     0.91571   0.54986   0.41100   0.00000  Uiso   1.00
C199   C     0.97025   0.48257   0.45298   0.00000  Uiso   1.00
C200   C     0.97208   0.42260   0.43565   0.00000  Uiso   1.00
C201   C     0.02625   0.36658   0.48087   0.00000  Uiso   1.00
C202   C     0.87480   0.59274   0.45011   0.00000  Uiso   1.00
C203   C     0.79636   0.62542   0.43037   0.00000  Uiso   1.00
C204   C     0.77018   0.66216   0.47317   0.00000  Uiso   1.00
C205   C     0.96577   0.57917   0.40604   0.00000  Uiso   1.00
C206   C     0.96381   0.60045   0.34924   0.00000  Uiso   1.00
C207   C     0.01420   0.62578   0.35493   0.00000  Uiso   1.00
H208   H     0.04799   0.56001   0.56908   0.00000  Uiso   1.00
H209   H     0.11400   0.43351   0.60527   0.00000  Uiso   1.00
H210   H     0.93832   0.63631   0.59999   0.00000  Uiso   1.00
H211   H     0.10574   0.61134   0.51887   0.00000  Uiso   1.00
H212   H     0.16490   0.29156   0.61879   0.00000  Uiso   1.00
H213   H     0.79446   0.71918   0.60764   0.00000  Uiso   1.00
H214   H     0.14749   0.66653   0.43659   0.00000  Uiso   1.00
H215   H     0.87639   0.54685   0.36401   0.00000  Uiso   1.00
H216   H     0.93299   0.41962   0.38895   0.00000  Uiso   1.00
H217   H     0.75730   0.62242   0.38367   0.00000  Uiso   1.00
H218   H     0.92472   0.59745   0.30255   0.00000  Uiso   1.00
H219   H     0.01798   0.28028   0.44321   0.00000  Uiso   1.00
H220   H     0.64754   0.70791   0.43207   0.00000  Uiso   1.00
H221   H     0.00057   0.65526   0.26101   0.00000  Uiso   1.00
O222   O     0.13175   0.20247   0.55111   0.00000  Uiso   1.00
O223   O     0.64575   0.76350   0.53649   0.00000  Uiso   1.00
O224   O     0.10892   0.69442   0.31207   0.00000  Uiso   1.00
N225   N     0.12257   0.30636   0.57404   0.00000  Uiso   1.00
N226   N     0.77622   0.70615   0.56363   0.00000  Uiso   1.00
N227   N     0.10627   0.65695   0.40370   0.00000  Uiso   1.00
N228   N     0.04351   0.30030   0.47956   0.00000  Uiso   1.00
N229   N     0.69717   0.70009   0.46915   0.00000  Uiso   1.00
N230   N     0.02721   0.65088   0.30923   0.00000  Uiso   1.00
C231   C     0.47275   0.89686   0.75092   0.00000  Uiso   1.00
C232   C     0.38940   0.94831   0.71856   0.00000  Uiso   1.00
C233   C     0.32696   0.93506   0.69249   0.00000  Uiso   1.00
C234   C     0.25537   0.98897   0.66505   0.00000  Uiso   1.00
C235   C     0.12728   0.05900   0.61504   0.00000  Uiso   1.00
C236   C     0.50520   0.91411   0.81812   0.00000  Uiso   1.00
C237   C     0.54014   0.87210   0.87575   0.00000  Uiso   1.00
C238   C     0.56603   0.89723   0.93212   0.00000  Uiso   1.00
C239   C     0.61778   0.91415   0.03668   0.00000  Uiso   1.00
C240   C     0.51258   0.90991   0.71445   0.00000  Uiso   1.00
C241   C     0.55374   0.86437   0.68492   0.00000  Uiso   1.00
C242   C     0.58586   0.88595   0.65402   0.00000  Uiso   1.00
C243   C     0.64907   0.89635   0.59760   0.00000  Uiso   1.00
C244   C     0.45662   0.01616   0.74855   0.00000  Uiso   1.00
C245   C     0.38064   0.01311   0.71728   0.00000  Uiso   1.00
C246   C     0.30912   0.06705   0.68987   0.00000  Uiso   1.00
C247   C     0.24659   0.05388   0.66376   0.00000  Uiso   1.00
C248   C     0.49644   0.97891   0.81684   0.00000  Uiso   1.00
C249   C     0.52230   0.00410   0.87313   0.00000  Uiso   1.00
C250   C     0.55726   0.96214   0.93084   0.00000  Uiso   1.00
C251   C     0.50382   0.97471   0.71316   0.00000  Uiso   1.00
C252   C     0.53589   0.99637   0.68230   0.00000  Uiso   1.00
C253   C     0.57709   0.95087   0.65273   0.00000  Uiso   1.00
H254   H     0.47957   0.84641   0.75192   0.00000  Uiso   1.00
H255   H     0.33377   0.88490   0.69350   0.00000  Uiso   1.00
H256   H     0.54692   0.82196   0.87673   0.00000  Uiso   1.00
H257   H     0.56051   0.81423   0.68593   0.00000  Uiso   1.00
H258   H     0.16826   0.95616   0.62819   0.00000  Uiso   1.00
H259   H     0.61771   0.82343   0.01454   0.00000  Uiso   1.00
H260   H     0.64638   0.80713   0.61219   0.00000  Uiso   1.00
H261   H     0.44980   0.06661   0.74755   0.00000  Uiso   1.00
H262   H     0.30236   0.11719   0.68888   0.00000  Uiso   1.00
H263   H     0.51551   0.05424   0.87212   0.00000  Uiso   1.00
H264   H     0.52910   0.04651   0.68131   0.00000  Uiso   1.00
H265   H     0.14276   0.14469   0.62444   0.00000  Uiso   1.00
H266   H     0.59223   0.01196   0.01080   0.00000  Uiso   1.00
H267   H     0.62089   0.99566   0.60845   0.00000  Uiso   1.00
O268   O     0.05906   0.07973   0.58782   0.00000  Uiso   1.00
O269   O     0.64874   0.90558   0.09470   0.00000  Uiso   1.00
O270   O     0.68634   0.88420   0.56683   0.00000  Uiso   1.00
N271   N     0.18249   0.99359   0.63534   0.00000  Uiso   1.00
N272   N     0.60270   0.86950   0.99656   0.00000  Uiso   1.00
N273   N     0.62951   0.85425   0.62042   0.00000  Uiso   1.00
N274   N     0.16877   0.09504   0.63333   0.00000  Uiso   1.00
N275   N     0.58898   0.97095   0.99455   0.00000  Uiso   1.00
N276   N     0.61580   0.95570   0.61840   0.00000  Uiso   1.00
C277   C     0.40871   0.12631   0.01474   0.00000  Uiso   1.00
C278   C     0.35741   0.16248   0.94592   0.00000  Uiso   1.00
C279   C     0.38189   0.16644   0.89921   0.00000  Uiso   1.00
C280   C     0.32603   0.20185   0.83918   0.00000  Uiso   1.00
C281   C     0.25817   0.25338   0.73426   0.00000  Uiso   1.00
C282   C     0.38096   0.07722   0.02360   0.00000  Uiso   1.00
C283   C     0.42525   0.00950   0.04221   0.00000  Uiso   1.00
C284   C     0.38921   0.97313   0.04757   0.00000  Uiso   1.00
C285   C     0.35793   0.89229   0.06329   0.00000  Uiso   1.00
C286   C     0.38993   0.17748   0.05856   0.00000  Uiso   1.00
C287   C     0.44176   0.19404   0.10658   0.00000  Uiso   1.00
C288   C     0.41327   0.24207   0.14140   0.00000  Uiso   1.00
C289   C     0.39591   0.31690   0.21140   0.00000  Uiso   1.00
C290   C     0.26596   0.18214   0.99119   0.00000  Uiso   1.00
C291   C     0.27987   0.19281   0.93313   0.00000  Uiso   1.00
C292   C     0.22396   0.22822   0.87315   0.00000  Uiso   1.00
C293   C     0.24835   0.23223   0.82636   0.00000  Uiso   1.00
C294   C     0.30343   0.10755   0.01081   0.00000  Uiso   1.00
C295   C     0.26732   0.07127   0.01615   0.00000  Uiso   1.00
C296   C     0.31154   0.00351   0.03476   0.00000  Uiso   1.00
C297   C     0.31239   0.20781   0.04577   0.00000  Uiso   1.00
C298   C     0.28382   0.25582   0.08052   0.00000  Uiso   1.00
C299   C     0.33559   0.27245   0.12858   0.00000  Uiso   1.00
H300   H     0.46907   0.10269   0.02470   0.00000  Uiso   1.00
H301   H     0.44190   0.14296   0.90913   0.00000  Uiso   1.00
H302   H     0.48525   0.98604   0.05211   0.00000  Uiso   1.00
H303   H     0.50175   0.17056   0.11647   0.00000  Uiso   1.00
H304   H     0.37758   0.20096   0.77534   0.00000  Uiso   1.00
H305   H     0.46900   0.87009   0.07685   0.00000  Uiso   1.00
H306   H     0.50380   0.25918   0.21257   0.00000  Uiso   1.00
H307   H     0.20559   0.20576   0.98123   0.00000  Uiso   1.00
H308   H     0.16396   0.25168   0.86327   0.00000  Uiso   1.00
H309   H     0.20731   0.09476   0.00625   0.00000  Uiso   1.00
H310   H     0.22381   0.27928   0.07061   0.00000  Uiso   1.00
H311   H     0.15199   0.28920   0.73812   0.00000  Uiso   1.00
H312   H     0.24342   0.95832   0.03963   0.00000  Uiso   1.00
H313   H     0.27821   0.34742   0.17535   0.00000  Uiso   1.00
O314   O     0.24215   0.27342   0.67991   0.00000  Uiso   1.00
O315   O     0.36210   0.83932   0.07549   0.00000  Uiso   1.00
O316   O     0.40775   0.34980   0.25354   0.00000  Uiso   1.00
N317   N     0.33020   0.21544   0.78278   0.00000  Uiso   1.00
N318   N     0.41567   0.90609   0.06466   0.00000  Uiso   1.00
N319   N     0.44821   0.26984   0.19155   0.00000  Uiso   1.00
N320   N     0.20882   0.26292   0.76275   0.00000  Uiso   1.00
N321   N     0.29429   0.95357   0.04463   0.00000  Uiso   1.00
N322   N     0.32682   0.31732   0.17152   0.00000  Uiso   1.00
C323   C     0.44746   0.46209   0.52030   0.00000  Uiso   1.00
C324   C     0.49912   0.40788   0.49540   0.00000  Uiso   1.00
C325   C     0.47765   0.39310   0.43302   0.00000  Uiso   1.00
C326   C     0.53330   0.34169   0.41983   0.00000  Uiso   1.00
C327   C     0.60220   0.26291   0.37393   0.00000  Uiso   1.00
C328   C     0.48673   0.50584   0.54766   0.00000  Uiso   1.00
C329   C     0.45484   0.57343   0.52921   0.00000  Uiso   1.00
C330   C     0.50007   0.60450   0.56002   0.00000  Uiso   1.00
C331   C     0.54972   0.67782   0.59529   0.00000  Uiso   1.00
C332   C     0.45044   0.42800   0.57780   0.00000  Uiso   1.00
C333   C     0.38803   0.43015   0.58471   0.00000  Uiso   1.00
C334   C     0.40271   0.39568   0.64090   0.00000  Uiso   1.00
C335   C     0.39600   0.34813   0.72297   0.00000  Uiso   1.00
C336   C     0.58448   0.39708   0.60781   0.00000  Uiso   1.00
C337   C     0.57354   0.37257   0.54294   0.00000  Uiso   1.00
C338   C     0.62924   0.32117   0.52984   0.00000  Uiso   1.00
C339   C     0.60786   0.30632   0.46745   0.00000  Uiso   1.00
C340   C     0.56115   0.47054   0.59519   0.00000  Uiso   1.00
C341   C     0.60644   0.50151   0.62604   0.00000  Uiso   1.00
C342   C     0.57463   0.56912   0.60764   0.00000  Uiso   1.00
C343   C     0.52486   0.39268   0.62534   0.00000  Uiso   1.00
C344   C     0.53963   0.35822   0.68153   0.00000  Uiso   1.00
C345   C     0.47726   0.36031   0.68853   0.00000  Uiso   1.00
H346   H     0.38952   0.48958   0.48329   0.00000  Uiso   1.00
H347   H     0.42005   0.42044   0.39624   0.00000  Uiso   1.00
H348   H     0.39724   0.60074   0.49243   0.00000  Uiso   1.00
H349   H     0.33045   0.45747   0.54791   0.00000  Uiso   1.00
H350   H     0.48672   0.32823   0.32069   0.00000  Uiso   1.00
H351   H     0.43863   0.70841   0.52352   0.00000  Uiso   1.00
H352   H     0.29778   0.40631   0.64053   0.00000  Uiso   1.00
H353   H     0.64243   0.36959   0.64482   0.00000  Uiso   1.00
H354   H     0.68683   0.29386   0.56664   0.00000  Uiso   1.00
H355   H     0.66403   0.47417   0.66282   0.00000  Uiso   1.00
H356   H     0.59723   0.33090   0.71831   0.00000  Uiso   1.00
H357   H     0.70326   0.22549   0.45899   0.00000  Uiso   1.00
H358   H     0.65516   0.60568   0.66182   0.00000  Uiso   1.00
H359   H     0.51431   0.30357   0.77883   0.00000  Uiso   1.00
O360   O     0.61965   0.22922   0.33548   0.00000  Uiso   1.00
O361   O     0.55654   0.72801   0.60160   0.00000  Uiso   1.00
O362   O     0.37175   0.33165   0.75511   0.00000  Uiso   1.00
N363   N     0.53159   0.31443   0.36397   0.00000  Uiso   1.00
N364   N     0.48663   0.66988   0.55360   0.00000  Uiso   1.00
N365   N     0.35494   0.38745   0.66300   0.00000  Uiso   1.00
N366   N     0.64810   0.25915   0.43839   0.00000  Uiso   1.00
N367   N     0.60314   0.61460   0.62802   0.00000  Uiso   1.00
N368   N     0.47145   0.33217   0.73742   0.00000  Uiso   1.00
C369   C     0.79360   0.04928   0.57807   0.00000  Uiso   1.00
C370   C     0.82398   0.09917   0.60438   0.00000  Uiso   1.00
C371   C     0.88579   0.10153   0.60026   0.00000  Uiso   1.00
C372   C     0.90456   0.15096   0.62732   0.00000  Uiso   1.00
C373   C     0.95804   0.22155   0.66357   0.00000  Uiso   1.00
C374   C     0.70971   0.08971   0.53268   0.00000  Uiso   1.00
C375   C     0.67545   0.08409   0.46827   0.00000  Uiso   1.00
C376   C     0.59802   0.12556   0.43497   0.00000  Uiso   1.00
C377   C     0.47409   0.18141   0.35991   0.00000  Uiso   1.00
C378   C     0.79461   0.01626   0.63510   0.00000  Uiso   1.00
C379   C     0.83172   0.94888   0.65681   0.00000  Uiso   1.00
C380   C     0.82576   0.92851   0.70974   0.00000  Uiso   1.00
C381   C     0.83365   0.87032   0.79371   0.00000  Uiso   1.00
C382   C     0.71701   0.13290   0.63345   0.00000  Uiso   1.00
C383   C     0.78238   0.14459   0.63446   0.00000  Uiso   1.00
C384   C     0.80106   0.19404   0.66153   0.00000  Uiso   1.00
C385   C     0.86289   0.19646   0.65746   0.00000  Uiso   1.00
C386   C     0.66811   0.13513   0.56275   0.00000  Uiso   1.00
C387   C     0.59072   0.17661   0.52954   0.00000  Uiso   1.00
C388   C     0.55635   0.17106   0.46510   0.00000  Uiso   1.00
C389   C     0.75302   0.06168   0.66519   0.00000  Uiso   1.00
C390   C     0.74699   0.04140   0.71809   0.00000  Uiso   1.00
C391   C     0.78409   0.97401   0.73987   0.00000  Uiso   1.00
H392   H     0.82598   0.01392   0.55465   0.00000  Uiso   1.00
H393   H     0.91797   0.06637   0.57697   0.00000  Uiso   1.00
H394   H     0.70766   0.04894   0.44501   0.00000  Uiso   1.00
H395   H     0.86391   0.91375   0.63352   0.00000  Uiso   1.00
H396   H     0.00159   0.14457   0.61497   0.00000  Uiso   1.00
H397   H     0.55813   0.10779   0.33672   0.00000  Uiso   1.00
H398   H     0.88762   0.82272   0.73423   0.00000  Uiso   1.00
H399   H     0.68462   0.16826   0.65687   0.00000  Uiso   1.00
H400   H     0.76885   0.22918   0.68481   0.00000  Uiso   1.00
H401   H     0.55854   0.21174   0.55284   0.00000  Uiso   1.00
H402   H     0.71479   0.07656   0.74135   0.00000  Uiso   1.00
H403   H     0.88056   0.27671   0.70249   0.00000  Uiso   1.00
H404   H     0.43710   0.23993   0.42423   0.00000  Uiso   1.00
H405   H     0.76659   0.95487   0.82175   0.00000  Uiso   1.00
O406   O     0.99902   0.24794   0.67524   0.00000  Uiso   1.00
O407   O     0.41722   0.19968   0.31019   0.00000  Uiso   1.00
O408   O     0.84951   0.82569   0.83172   0.00000  Uiso   1.00
N409   N     0.96156   0.16730   0.63174   0.00000  Uiso   1.00
N410   N     0.54695   0.13292   0.37159   0.00000  Uiso   1.00
N411   N     0.85498   0.86641   0.74322   0.00000  Uiso   1.00
N412   N     0.89643   0.23840   0.67884   0.00000  Uiso   1.00
N413   N     0.48183   0.20403   0.41869   0.00000  Uiso   1.00
N414   N     0.78985   0.93751   0.79032   0.00000  Uiso   1.00
C415   C     0.26981   0.25996   0.36514   0.00000  Uiso   1.00
C416   C     0.19323   0.25792   0.33453   0.00000  Uiso   1.00
C417   C     0.17731   0.21344   0.29474   0.00000  Uiso   1.00
C418   C     0.10376   0.21975   0.27160   0.00000  Uiso   1.00
C419   C     0.99330   0.20916   0.22160   0.00000  Uiso   1.00
C420   C     0.25377   0.32953   0.34367   0.00000  Uiso   1.00
C421   C     0.28876   0.34524   0.31156   0.00000  Uiso   1.00
C422   C     0.26617   0.41184   0.29612   0.00000  Uiso   1.00
C423   C     0.24975   0.51241   0.26034   0.00000  Uiso   1.00
C424   C     0.29230   0.25432   0.43754   0.00000  Uiso   1.00
C425   C     0.35969   0.20681   0.48438   0.00000  Uiso   1.00
C426   C     0.36955   0.21009   0.54797   0.00000  Uiso   1.00
C427   C     0.41294   0.19388   0.65795   0.00000  Uiso   1.00
C428   C     0.16749   0.35028   0.39481   0.00000  Uiso   1.00
C429   C     0.13766   0.30699   0.35065   0.00000  Uiso   1.00
C430   C     0.06411   0.31337   0.32756   0.00000  Uiso   1.00
C431   C     0.04808   0.26890   0.28774   0.00000  Uiso   1.00
C432   C     0.19820   0.37859   0.35978   0.00000  Uiso   1.00
C433   C     0.17556   0.44518   0.34438   0.00000  Uiso   1.00
C434   C     0.21050   0.46099   0.31226   0.00000  Uiso   1.00
C435   C     0.23672   0.30338   0.45366   0.00000  Uiso   1.00
C436   C     0.24648   0.30674   0.51720   0.00000  Uiso   1.00
C437   C     0.31387   0.25924   0.56411   0.00000  Uiso   1.00
H438   H     0.31308   0.22176   0.35259   0.00000  Uiso   1.00
H439   H     0.22034   0.17548   0.28228   0.00000  Uiso   1.00
H440   H     0.33177   0.30727   0.29910   0.00000  Uiso   1.00
H441   H     0.40269   0.16885   0.47189   0.00000  Uiso   1.00
H442   H     0.09300   0.14582   0.21141   0.00000  Uiso   1.00
H443   H     0.32799   0.42369   0.24690   0.00000  Uiso   1.00
H444   H     0.47752   0.13182   0.61126   0.00000  Uiso   1.00
H445   H     0.12422   0.38848   0.40735   0.00000  Uiso   1.00
H446   H     0.02111   0.35134   0.34004   0.00000  Uiso   1.00
H447   H     0.13255   0.48313   0.35686   0.00000  Uiso   1.00
H448   H     0.20346   0.34471   0.52965   0.00000  Uiso   1.00
H449   H     0.93130   0.28856   0.25828   0.00000  Uiso   1.00
H450   H     0.16629   0.56643   0.29378   0.00000  Uiso   1.00
H451   H     0.31582   0.27456   0.65813   0.00000  Uiso   1.00
O452   O     0.94772   0.18976   0.18956   0.00000  Uiso   1.00
O453   O     0.25603   0.55432   0.23614   0.00000  Uiso   1.00
O454   O     0.45222   0.17139   0.71416   0.00000  Uiso   1.00
N455   N     0.06909   0.18450   0.23169   0.00000  Uiso   1.00
N456   N     0.28879   0.44430   0.26486   0.00000  Uiso   1.00
N457   N     0.42860   0.17143   0.60551   0.00000  Uiso   1.00
N458   N     0.98209   0.26130   0.25691   0.00000  Uiso   1.00
N459   N     0.20178   0.52110   0.29009   0.00000  Uiso   1.00
N460   N     0.34159   0.24823   0.63073   0.00000  Uiso   1.00
C461   C     0.19081   0.87199   0.40647   0.00000  Uiso   1.00
C462   C     0.16445   0.94417   0.41651   0.00000  Uiso   1.00
C463   C     0.10153   0.99775   0.37259   0.00000  Uiso   1.00
C464   C     0.08699   0.05985   0.39086   0.00000  Uiso   1.00
C465   C     0.03897   0.17069   0.39730   0.00000  Uiso   1.00
C466   C     0.27334   0.84611   0.41597   0.00000  Uiso   1.00
C467   C     0.30196   0.81722   0.37158   0.00000  Uiso   1.00
C468   C     0.37909   0.79676   0.38939   0.00000  Uiso   1.00
C469   C     0.50013   0.75530   0.39501   0.00000  Uiso   1.00
C470   C     0.19364   0.83599   0.46269   0.00000  Uiso   1.00
C471   C     0.15526   0.79859   0.45760   0.00000  Uiso   1.00
C472   C     0.16529   0.76960   0.51475   0.00000  Uiso   1.00
C473   C     0.16258   0.71244   0.59292   0.00000  Uiso   1.00
C474   C     0.27689   0.88701   0.51703   0.00000  Uiso   1.00
C475   C     0.21121   0.95233   0.47656   0.00000  Uiso   1.00
C476   C     0.19676   0.01436   0.49491   0.00000  Uiso   1.00
C477   C     0.13382   0.06802   0.45101   0.00000  Uiso   1.00
C478   C     0.32010   0.85426   0.47601   0.00000  Uiso   1.00
C479   C     0.39720   0.83384   0.49390   0.00000  Uiso   1.00
C480   C     0.42593   0.80493   0.44955   0.00000  Uiso   1.00
C481   C     0.24039   0.84415   0.52274   0.00000  Uiso   1.00
C482   C     0.25049   0.81521   0.57991   0.00000  Uiso   1.00
C483   C     0.21213   0.77777   0.57491   0.00000  Uiso   1.00
H484   H     0.15442   0.86564   0.35972   0.00000  Uiso   1.00
H485   H     0.06536   0.99142   0.32612   0.00000  Uiso   1.00
H486   H     0.26577   0.81091   0.32512   0.00000  Uiso   1.00
H487   H     0.11908   0.79229   0.41112   0.00000  Uiso   1.00
H488   H     0.98726   0.13446   0.31534   0.00000  Uiso   1.00
H489   H     0.40983   0.75383   0.31323   0.00000  Uiso   1.00
H490   H     0.10053   0.71456   0.49459   0.00000  Uiso   1.00
H491   H     0.31330   0.89336   0.56378   0.00000  Uiso   1.00
H492   H     0.23295   0.02066   0.54138   0.00000  Uiso   1.00
H493   H     0.43336   0.84015   0.54037   0.00000  Uiso   1.00
H494   H     0.28668   0.82153   0.62638   0.00000  Uiso   1.00
H495   H     0.12329   0.15820   0.49005   0.00000  Uiso   1.00
H496   H     0.54586   0.77756   0.48794   0.00000  Uiso   1.00
H497   H     0.23655   0.73829   0.66930   0.00000  Uiso   1.00
O498   O     0.99957   0.22957   0.38427   0.00000  Uiso   1.00
O499   O     0.55397   0.73019   0.38151   0.00000  Uiso   1.00
O500   O     0.14816   0.67867   0.61944   0.00000  Uiso   1.00
N501   N     0.03029   0.12258   0.35954   0.00000  Uiso   1.00
N502   N     0.42537   0.76672   0.35756   0.00000  Uiso   1.00
N503   N     0.13621   0.72999   0.52712   0.00000  Uiso   1.00
N504   N     0.10349   0.13535   0.45355   0.00000  Uiso   1.00
N505   N     0.49857   0.77949   0.45157   0.00000  Uiso   1.00
N506   N     0.20940   0.74276   0.62113   0.00000  Uiso   1.00
C507   C     0.65857   0.51967   0.27535   0.00000  Uiso   1.00
C508   C     0.71393   0.52772   0.25428   0.00000  Uiso   1.00
C509   C     0.69729   0.58182   0.21474   0.00000  Uiso   1.00
C510   C     0.75574   0.57972   0.20108   0.00000  Uiso   1.00
C511   C     0.83067   0.60046   0.16453   0.00000  Uiso   1.00
C512   C     0.65675   0.45540   0.25448   0.00000  Uiso   1.00
C513   C     0.59202   0.44869   0.21512   0.00000  Uiso   1.00
C514   C     0.60234   0.38570   0.20164   0.00000  Uiso   1.00
C515   C     0.58848   0.29415   0.16545   0.00000  Uiso   1.00
C516   C     0.69645   0.50741   0.34884   0.00000  Uiso   1.00
C517   C     0.66510   0.54442   0.38882   0.00000  Uiso   1.00
C518   C     0.70882   0.52521   0.45479   0.00000  Uiso   1.00
C519   C     0.75660   0.51442   0.56510   0.00000  Uiso   1.00
C520   C     0.79197   0.41974   0.32140   0.00000  Uiso   1.00
C521   C     0.78639   0.47344   0.27929   0.00000  Uiso   1.00
C522   C     0.84488   0.47126   0.26568   0.00000  Uiso   1.00
C523   C     0.82833   0.52535   0.22614   0.00000  Uiso   1.00
C524   C     0.72920   0.40112   0.27949   0.00000  Uiso   1.00
C525   C     0.73961   0.33813   0.26607   0.00000  Uiso   1.00
C526   C     0.67492   0.33133   0.22670   0.00000  Uiso   1.00
C527   C     0.76890   0.45313   0.37385   0.00000  Uiso   1.00
C528   C     0.81268   0.43386   0.43977   0.00000  Uiso   1.00
C529   C     0.78141   0.47084   0.47985   0.00000  Uiso   1.00
H530   H     0.60216   0.56193   0.25588   0.00000  Uiso   1.00
H531   H     0.64121   0.62382   0.19539   0.00000  Uiso   1.00
H532   H     0.53596   0.49070   0.19578   0.00000  Uiso   1.00
H533   H     0.60903   0.58642   0.36945   0.00000  Uiso   1.00
H534   H     0.71645   0.66848   0.13934   0.00000  Uiso   1.00
H535   H     0.49452   0.38780   0.14018   0.00000  Uiso   1.00
H536   H     0.64859   0.58964   0.50640   0.00000  Uiso   1.00
H537   H     0.84838   0.37748   0.34087   0.00000  Uiso   1.00
H538   H     0.90094   0.42925   0.28505   0.00000  Uiso   1.00
H539   H     0.79569   0.29613   0.28543   0.00000  Uiso   1.00
H540   H     0.86875   0.39185   0.45911   0.00000  Uiso   1.00
H541   H     0.92725   0.51056   0.21210   0.00000  Uiso   1.00
H542   H     0.70532   0.22988   0.21295   0.00000  Uiso   1.00
H543   H     0.85939   0.43172   0.57917   0.00000  Uiso   1.00
O544   O     0.85198   0.62690   0.13745   0.00000  Uiso   1.00
O545   O     0.56081   0.25865   0.13857   0.00000  Uiso   1.00
O546   O     0.76295   0.52347   0.61904   0.00000  Uiso   1.00
N547   N     0.75885   0.62422   0.16414   0.00000  Uiso   1.00
N548   N     0.55136   0.36180   0.16491   0.00000  Uiso   1.00
N549   N     0.69539   0.55049   0.50730   0.00000  Uiso   1.00
N550   N     0.87228   0.53924   0.20329   0.00000  Uiso   1.00
N551   N     0.66480   0.27683   0.20407   0.00000  Uiso   1.00
N552   N     0.80883   0.46552   0.54646   0.00000  Uiso   1.00
