data_job_02698
_audit_creation_date              2018-12-19
_audit_creation_method            'Materials Studio'
_symmetry_space_group_name_H-M    'P1'
_symmetry_Int_Tables_number       1
_symmetry_cell_setting            triclinic
loop_
_symmetry_equiv_pos_as_xyz
  x,y,z
_cell_length_a                    7.7894
_cell_length_b                    16.9121
_cell_length_c                    21.9991
_cell_angle_alpha                 90.0000
_cell_angle_beta                  110.8336
_cell_angle_gamma                 90.0000
loop_
_atom_site_label
_atom_site_type_symbol
_atom_site_fract_x
_atom_site_fract_y
_atom_site_fract_z
_atom_site_U_iso_or_equiv
_atom_site_adp_type
_atom_site_occupancy
C1     C     0.22384   0.47281   0.31930   0.00000  Uiso   1.00
C2     C     0.08505   0.48544   0.25082   0.00000  Uiso   1.00
C3     C     0.11492   0.47023   0.19338   0.00000  Uiso   1.00
C4     C     0.97062   0.48572   0.13570   0.00000  Uiso   1.00
C5     C     0.78071   0.50085   0.02939   0.00000  Uiso   1.00
C6     C     0.24334   0.55245   0.35361   0.00000  Uiso   1.00
C7     C     0.40631   0.59358   0.38262   0.00000  Uiso   1.00
C8     C     0.39525   0.66547   0.41148   0.00000  Uiso   1.00
C9     C     0.45111   0.78462   0.46481   0.00000  Uiso   1.00
C10    C     0.13111   0.41793   0.35326   0.00000  Uiso   1.00
C11    C     0.19973   0.34596   0.38198   0.00000  Uiso   1.00
C12    C     0.09419   0.30461   0.41056   0.00000  Uiso   1.00
C13    C     0.97579   0.21489   0.46333   0.00000  Uiso   1.00
C14    C     0.91445   0.52735   0.31900   0.00000  Uiso   1.00
C15    C     0.91700   0.51506   0.25066   0.00000  Uiso   1.00
C16    C     0.77261   0.53057   0.19305   0.00000  Uiso   1.00
C17    C     0.80226   0.51539   0.13554   0.00000  Uiso   1.00
C18    C     0.07530   0.58208   0.35345   0.00000  Uiso   1.00
C19    C     0.06400   0.65392   0.38229   0.00000  Uiso   1.00
C20    C     0.22690   0.69515   0.41132   0.00000  Uiso   1.00
C21    C     0.96306   0.44755   0.35310   0.00000  Uiso   1.00
C22    C     0.85740   0.40630   0.38164   0.00000  Uiso   1.00
C23    C     0.92584   0.33428   0.41040   0.00000  Uiso   1.00
H24    H     0.35468   0.44976   0.31943   0.00000  Uiso   1.00
H25    H     0.24500   0.44732   0.19353   0.00000  Uiso   1.00
H26    H     0.53634   0.57064   0.38274   0.00000  Uiso   1.00
H27    H     0.32978   0.32306   0.38209   0.00000  Uiso   1.00
H28    H     0.04931   0.45770   0.05387   0.00000  Uiso   1.00
H29    H     0.66362   0.71772   0.45285   0.00000  Uiso   1.00
H30    H     0.22805   0.19565   0.45150   0.00000  Uiso   1.00
H31    H     0.78361   0.55042   0.31888   0.00000  Uiso   1.00
H32    H     0.64258   0.55350   0.19294   0.00000  Uiso   1.00
H33    H     0.93393   0.67682   0.38215   0.00000  Uiso   1.00
H34    H     0.72736   0.42924   0.38151   0.00000  Uiso   1.00
H35    H     0.56036   0.54389   0.05340   0.00000  Uiso   1.00
H36    H     0.17469   0.80391   0.45238   0.00000  Uiso   1.00
H37    H     0.73911   0.28184   0.45102   0.00000  Uiso   1.00
O38    O     0.72239   0.50103   0.97080   0.00000  Uiso   1.00
O39    O     0.52835   0.84216   0.49426   0.00000  Uiso   1.00
O40    O     0.95689   0.15722   0.49248   0.00000  Uiso   1.00
N41    N     0.95358   0.47755   0.07104   0.00000  Uiso   1.00
N42    N     0.52792   0.72066   0.44406   0.00000  Uiso   1.00
N43    N     0.12073   0.23258   0.44281   0.00000  Uiso   1.00
N44    N     0.69048   0.52392   0.07079   0.00000  Uiso   1.00
N45    N     0.26482   0.76703   0.44380   0.00000  Uiso   1.00
N46    N     0.85763   0.27895   0.44255   0.00000  Uiso   1.00
C47    C     0.77616   0.97281   0.18070   0.00000  Uiso   1.00
C48    C     0.91495   0.98544   0.24918   0.00000  Uiso   1.00
C49    C     0.88508   0.97023   0.30662   0.00000  Uiso   1.00
C50    C     0.02938   0.98572   0.36430   0.00000  Uiso   1.00
C51    C     0.21929   0.00085   0.47061   0.00000  Uiso   1.00
C52    C     0.75666   0.05245   0.14639   0.00000  Uiso   1.00
C53    C     0.59369   0.09358   0.11738   0.00000  Uiso   1.00
C54    C     0.60475   0.16547   0.08852   0.00000  Uiso   1.00
C55    C     0.54889   0.28462   0.03519   0.00000  Uiso   1.00
C56    C     0.86889   0.91793   0.14674   0.00000  Uiso   1.00
C57    C     0.80027   0.84596   0.11802   0.00000  Uiso   1.00
C58    C     0.90581   0.80461   0.08944   0.00000  Uiso   1.00
C59    C     0.02421   0.71489   0.03667   0.00000  Uiso   1.00
C60    C     0.08555   0.02735   0.18100   0.00000  Uiso   1.00
C61    C     0.08300   0.01506   0.24934   0.00000  Uiso   1.00
C62    C     0.22739   0.03057   0.30695   0.00000  Uiso   1.00
C63    C     0.19774   0.01539   0.36446   0.00000  Uiso   1.00
C64    C     0.92470   0.08208   0.14655   0.00000  Uiso   1.00
C65    C     0.93600   0.15392   0.11771   0.00000  Uiso   1.00
C66    C     0.77310   0.19515   0.08868   0.00000  Uiso   1.00
C67    C     0.03694   0.94755   0.14690   0.00000  Uiso   1.00
C68    C     0.14260   0.90630   0.11836   0.00000  Uiso   1.00
C69    C     0.07416   0.83428   0.08960   0.00000  Uiso   1.00
H70    H     0.64532   0.94976   0.18057   0.00000  Uiso   1.00
H71    H     0.75500   0.94732   0.30647   0.00000  Uiso   1.00
H72    H     0.46366   0.07064   0.11726   0.00000  Uiso   1.00
H73    H     0.67022   0.82306   0.11791   0.00000  Uiso   1.00
H74    H     0.95069   0.95770   0.44613   0.00000  Uiso   1.00
H75    H     0.33638   0.21772   0.04715   0.00000  Uiso   1.00
H76    H     0.77195   0.69565   0.04850   0.00000  Uiso   1.00
H77    H     0.21639   0.05042   0.18112   0.00000  Uiso   1.00
H78    H     0.35742   0.05350   0.30706   0.00000  Uiso   1.00
H79    H     0.06607   0.17682   0.11785   0.00000  Uiso   1.00
H80    H     0.27264   0.92924   0.11849   0.00000  Uiso   1.00
H81    H     0.43964   0.04389   0.44660   0.00000  Uiso   1.00
H82    H     0.82531   0.30391   0.04762   0.00000  Uiso   1.00
H83    H     0.26089   0.78184   0.04898   0.00000  Uiso   1.00
O84    O     0.27761   0.00103   0.52920   0.00000  Uiso   1.00
O85    O     0.47165   0.34216   0.00574   0.00000  Uiso   1.00
O86    O     0.04311   0.65722   0.00752   0.00000  Uiso   1.00
N87    N     0.04642   0.97755   0.42896   0.00000  Uiso   1.00
N88    N     0.47208   0.22066   0.05594   0.00000  Uiso   1.00
N89    N     0.87927   0.73258   0.05719   0.00000  Uiso   1.00
N90    N     0.30952   0.02392   0.42921   0.00000  Uiso   1.00
N91    N     0.73518   0.26703   0.05620   0.00000  Uiso   1.00
N92    N     0.14237   0.77895   0.05745   0.00000  Uiso   1.00
C93    C     0.77616   0.52719   0.68070   0.00000  Uiso   1.00
C94    C     0.91495   0.51456   0.74918   0.00000  Uiso   1.00
C95    C     0.88508   0.52977   0.80662   0.00000  Uiso   1.00
C96    C     0.02938   0.51428   0.86430   0.00000  Uiso   1.00
C97    C     0.21929   0.49915   0.97061   0.00000  Uiso   1.00
C98    C     0.75666   0.44755   0.64639   0.00000  Uiso   1.00
C99    C     0.59369   0.40642   0.61738   0.00000  Uiso   1.00
C100   C     0.60475   0.33453   0.58852   0.00000  Uiso   1.00
C101   C     0.54889   0.21538   0.53519   0.00000  Uiso   1.00
C102   C     0.86889   0.58207   0.64674   0.00000  Uiso   1.00
C103   C     0.80027   0.65404   0.61802   0.00000  Uiso   1.00
C104   C     0.90581   0.69539   0.58944   0.00000  Uiso   1.00
C105   C     0.02421   0.78511   0.53667   0.00000  Uiso   1.00
C106   C     0.08555   0.47265   0.68100   0.00000  Uiso   1.00
C107   C     0.08300   0.48494   0.74934   0.00000  Uiso   1.00
C108   C     0.22739   0.46943   0.80695   0.00000  Uiso   1.00
C109   C     0.19774   0.48461   0.86446   0.00000  Uiso   1.00
C110   C     0.92470   0.41792   0.64655   0.00000  Uiso   1.00
C111   C     0.93600   0.34608   0.61771   0.00000  Uiso   1.00
C112   C     0.77310   0.30485   0.58868   0.00000  Uiso   1.00
C113   C     0.03694   0.55245   0.64690   0.00000  Uiso   1.00
C114   C     0.14260   0.59370   0.61836   0.00000  Uiso   1.00
C115   C     0.07416   0.66572   0.58960   0.00000  Uiso   1.00
H116   H     0.64532   0.55024   0.68057   0.00000  Uiso   1.00
H117   H     0.75500   0.55268   0.80647   0.00000  Uiso   1.00
H118   H     0.46366   0.42936   0.61726   0.00000  Uiso   1.00
H119   H     0.67022   0.67694   0.61791   0.00000  Uiso   1.00
H120   H     0.95069   0.54230   0.94613   0.00000  Uiso   1.00
H121   H     0.33638   0.28228   0.54715   0.00000  Uiso   1.00
H122   H     0.77195   0.80435   0.54850   0.00000  Uiso   1.00
H123   H     0.21639   0.44958   0.68112   0.00000  Uiso   1.00
H124   H     0.35742   0.44650   0.80706   0.00000  Uiso   1.00
H125   H     0.06607   0.32318   0.61785   0.00000  Uiso   1.00
H126   H     0.27264   0.57076   0.61849   0.00000  Uiso   1.00
H127   H     0.43964   0.45611   0.94660   0.00000  Uiso   1.00
H128   H     0.82531   0.19609   0.54762   0.00000  Uiso   1.00
H129   H     0.26089   0.71816   0.54898   0.00000  Uiso   1.00
O130   O     0.27761   0.49897   0.02920   0.00000  Uiso   1.00
O131   O     0.47165   0.15784   0.50574   0.00000  Uiso   1.00
O132   O     0.04311   0.84278   0.50752   0.00000  Uiso   1.00
N133   N     0.04642   0.52245   0.92896   0.00000  Uiso   1.00
N134   N     0.47208   0.27934   0.55594   0.00000  Uiso   1.00
N135   N     0.87927   0.76742   0.55719   0.00000  Uiso   1.00
N136   N     0.30952   0.47608   0.92921   0.00000  Uiso   1.00
N137   N     0.73518   0.23297   0.55620   0.00000  Uiso   1.00
N138   N     0.14237   0.72105   0.55745   0.00000  Uiso   1.00
C139   C     0.22384   0.02719   0.81930   0.00000  Uiso   1.00
C140   C     0.08505   0.01456   0.75082   0.00000  Uiso   1.00
C141   C     0.11492   0.02977   0.69338   0.00000  Uiso   1.00
C142   C     0.97062   0.01428   0.63570   0.00000  Uiso   1.00
C143   C     0.78071   0.99915   0.52939   0.00000  Uiso   1.00
C144   C     0.24334   0.94755   0.85361   0.00000  Uiso   1.00
C145   C     0.40631   0.90642   0.88262   0.00000  Uiso   1.00
C146   C     0.39525   0.83453   0.91148   0.00000  Uiso   1.00
C147   C     0.45111   0.71538   0.96481   0.00000  Uiso   1.00
C148   C     0.13111   0.08207   0.85326   0.00000  Uiso   1.00
C149   C     0.19973   0.15404   0.88198   0.00000  Uiso   1.00
C150   C     0.09419   0.19539   0.91056   0.00000  Uiso   1.00
C151   C     0.97579   0.28511   0.96333   0.00000  Uiso   1.00
C152   C     0.91445   0.97265   0.81900   0.00000  Uiso   1.00
C153   C     0.91700   0.98494   0.75066   0.00000  Uiso   1.00
C154   C     0.77261   0.96943   0.69305   0.00000  Uiso   1.00
C155   C     0.80226   0.98461   0.63554   0.00000  Uiso   1.00
C156   C     0.07530   0.91792   0.85345   0.00000  Uiso   1.00
C157   C     0.06400   0.84608   0.88229   0.00000  Uiso   1.00
C158   C     0.22690   0.80485   0.91132   0.00000  Uiso   1.00
C159   C     0.96306   0.05245   0.85310   0.00000  Uiso   1.00
C160   C     0.85740   0.09370   0.88164   0.00000  Uiso   1.00
C161   C     0.92584   0.16572   0.91040   0.00000  Uiso   1.00
H162   H     0.35468   0.05024   0.81943   0.00000  Uiso   1.00
H163   H     0.24500   0.05268   0.69353   0.00000  Uiso   1.00
H164   H     0.53634   0.92936   0.88274   0.00000  Uiso   1.00
H165   H     0.32978   0.17694   0.88209   0.00000  Uiso   1.00
H166   H     0.04931   0.04230   0.55387   0.00000  Uiso   1.00
H167   H     0.66362   0.78228   0.95285   0.00000  Uiso   1.00
H168   H     0.22805   0.30435   0.95150   0.00000  Uiso   1.00
H169   H     0.78361   0.94958   0.81888   0.00000  Uiso   1.00
H170   H     0.64258   0.94650   0.69294   0.00000  Uiso   1.00
H171   H     0.93393   0.82318   0.88215   0.00000  Uiso   1.00
H172   H     0.72736   0.07076   0.88151   0.00000  Uiso   1.00
H173   H     0.56036   0.95611   0.55340   0.00000  Uiso   1.00
H174   H     0.17469   0.69609   0.95238   0.00000  Uiso   1.00
H175   H     0.73911   0.21816   0.95102   0.00000  Uiso   1.00
O176   O     0.72239   0.99897   0.47080   0.00000  Uiso   1.00
O177   O     0.52835   0.65784   0.99426   0.00000  Uiso   1.00
O178   O     0.95689   0.34278   0.99248   0.00000  Uiso   1.00
N179   N     0.95358   0.02245   0.57104   0.00000  Uiso   1.00
N180   N     0.52792   0.77934   0.94406   0.00000  Uiso   1.00
N181   N     0.12073   0.26742   0.94281   0.00000  Uiso   1.00
N182   N     0.69048   0.97608   0.57079   0.00000  Uiso   1.00
N183   N     0.26482   0.73297   0.94380   0.00000  Uiso   1.00
N184   N     0.85763   0.22105   0.94255   0.00000  Uiso   1.00
