data_job_06602
_audit_creation_date              2018-12-19
_audit_creation_method            'Materials Studio'
_symmetry_space_group_name_H-M    'P1'
_symmetry_Int_Tables_number       1
_symmetry_cell_setting            triclinic
loop_
_symmetry_equiv_pos_as_xyz
  x,y,z
_cell_length_a                    21.1803
_cell_length_b                    21.5690
_cell_length_c                    21.6707
_cell_angle_alpha                 70.8635
_cell_angle_beta                  81.7000
_cell_angle_gamma                 115.1495
loop_
_atom_site_label
_atom_site_type_symbol
_atom_site_fract_x
_atom_site_fract_y
_atom_site_fract_z
_atom_site_U_iso_or_equiv
_atom_site_adp_type
_atom_site_occupancy
C1     C     0.69439   0.72643   0.90818   0.00000  Uiso   1.00
C2     C     0.72183   0.79639   0.92252   0.00000  Uiso   1.00
C3     C     0.78324   0.86732   0.87940   0.00000  Uiso   1.00
C4     C     0.79916   0.92395   0.90182   0.00000  Uiso   1.00
C5     C     0.84848   0.03469   0.91446   0.00000  Uiso   1.00
C6     C     0.69158   0.66417   0.96986   0.00000  Uiso   1.00
C7     C     0.72754   0.62392   0.96654   0.00000  Uiso   1.00
C8     C     0.71799   0.56923   0.02881   0.00000  Uiso   1.00
C9     C     0.72029   0.47464   0.11495   0.00000  Uiso   1.00
C10    C     0.61431   0.70121   0.91200   0.00000  Uiso   1.00
C11    C     0.58531   0.69208   0.86004   0.00000  Uiso   1.00
C12    C     0.51069   0.66856   0.87360   0.00000  Uiso   1.00
C13    C     0.39303   0.63148   0.86991   0.00000  Uiso   1.00
C14    C     0.61347   0.70086   0.02465   0.00000  Uiso   1.00
C15    C     0.67788   0.78250   0.98578   0.00000  Uiso   1.00
C16    C     0.69371   0.83904   0.00826   0.00000  Uiso   1.00
C17    C     0.75513   0.91004   0.96519   0.00000  Uiso   1.00
C18    C     0.64762   0.65028   0.03312   0.00000  Uiso   1.00
C19    C     0.63801   0.59563   0.09540   0.00000  Uiso   1.00
C20    C     0.67395   0.55532   0.09218   0.00000  Uiso   1.00
C21    C     0.57036   0.68732   0.97526   0.00000  Uiso   1.00
C22    C     0.49577   0.66380   0.98890   0.00000  Uiso   1.00
C23    C     0.46666   0.65464   0.93698   0.00000  Uiso   1.00
H24    H     0.72861   0.73724   0.85893   0.00000  Uiso   1.00
H25    H     0.81725   0.87805   0.83045   0.00000  Uiso   1.00
H26    H     0.76155   0.63467   0.91758   0.00000  Uiso   1.00
H27    H     0.61934   0.70283   0.81110   0.00000  Uiso   1.00
H28    H     0.89615   0.02803   0.82679   0.00000  Uiso   1.00
H29    H     0.77868   0.51484   0.01049   0.00000  Uiso   1.00
H30    H     0.47880   0.65856   0.78595   0.00000  Uiso   1.00
H31    H     0.57924   0.69005   0.07391   0.00000  Uiso   1.00
H32    H     0.65968   0.82827   0.05722   0.00000  Uiso   1.00
H33    H     0.60398   0.58490   0.14435   0.00000  Uiso   1.00
H34    H     0.46177   0.65306   0.03787   0.00000  Uiso   1.00
H35    H     0.76826   0.98763   0.01084   0.00000  Uiso   1.00
H36    H     0.65079   0.47444   0.19455   0.00000  Uiso   1.00
H37    H     0.35092   0.61816   0.97001   0.00000  Uiso   1.00
O38    O     0.88783   0.09960   0.90397   0.00000  Uiso   1.00
O39    O     0.73371   0.42632   0.14498   0.00000  Uiso   1.00
O40    O     0.34027   0.61488   0.85039   0.00000  Uiso   1.00
N41    N     0.85500   0.99955   0.87239   0.00000  Uiso   1.00
N42    N     0.74519   0.51977   0.04414   0.00000  Uiso   1.00
N43    N     0.46482   0.65411   0.83422   0.00000  Uiso   1.00
N44    N     0.78619   0.97782   0.97143   0.00000  Uiso   1.00
N45    N     0.67637   0.49803   0.14318   0.00000  Uiso   1.00
N46    N     0.39601   0.63237   0.93326   0.00000  Uiso   1.00
C47    C     0.87007   0.32371   0.93761   0.00000  Uiso   1.00
C48    C     0.93278   0.31705   0.90177   0.00000  Uiso   1.00
C49    C     0.93150   0.28775   0.85342   0.00000  Uiso   1.00
C50    C     0.99442   0.28658   0.82667   0.00000  Uiso   1.00
C51    C     0.08236   0.27209   0.76787   0.00000  Uiso   1.00
C52    C     0.85276   0.28096   0.01512   0.00000  Uiso   1.00
C53    C     0.78420   0.22133   0.06207   0.00000  Uiso   1.00
C54    C     0.77975   0.18979   0.13075   0.00000  Uiso   1.00
C55    C     0.74345   0.11930   0.24793   0.00000  Uiso   1.00
C56    C     0.90279   0.40737   0.92232   0.00000  Uiso   1.00
C57    C     0.87628   0.45402   0.89126   0.00000  Uiso   1.00
C58    C     0.91394   0.52890   0.88181   0.00000  Uiso   1.00
C59    C     0.95532   0.65468   0.85490   0.00000  Uiso   1.00
C60    C     0.98408   0.37373   0.97610   0.00000  Uiso   1.00
C61    C     0.99470   0.34422   0.92268   0.00000  Uiso   1.00
C62    C     0.05764   0.34310   0.89599   0.00000  Uiso   1.00
C63    C     0.05646   0.31381   0.84761   0.00000  Uiso   1.00
C64    C     0.91468   0.30813   0.03603   0.00000  Uiso   1.00
C65    C     0.91034   0.27668   0.10465   0.00000  Uiso   1.00
C66    C     0.84179   0.21701   0.15169   0.00000  Uiso   1.00
C67    C     0.96471   0.43454   0.94322   0.00000  Uiso   1.00
C68    C     0.00242   0.50936   0.93383   0.00000  Uiso   1.00
C69    C     0.97598   0.55612   0.90275   0.00000  Uiso   1.00
H70    H     0.82185   0.30255   0.92134   0.00000  Uiso   1.00
H71    H     0.88356   0.26673   0.83726   0.00000  Uiso   1.00
H72    H     0.73628   0.20032   0.04588   0.00000  Uiso   1.00
H73    H     0.82835   0.43298   0.87509   0.00000  Uiso   1.00
H74    H     0.97928   0.23897   0.75327   0.00000  Uiso   1.00
H75    H     0.66873   0.09897   0.19317   0.00000  Uiso   1.00
H76    H     0.86287   0.58956   0.83302   0.00000  Uiso   1.00
H77    H     0.03229   0.39488   0.99237   0.00000  Uiso   1.00
H78    H     0.10556   0.36413   0.91218   0.00000  Uiso   1.00
H79    H     0.95827   0.29772   0.12081   0.00000  Uiso   1.00
H80    H     0.05034   0.53037   0.95001   0.00000  Uiso   1.00
H81    H     0.15946   0.31802   0.81408   0.00000  Uiso   1.00
H82    H     0.84890   0.17802   0.25398   0.00000  Uiso   1.00
H83    H     0.04305   0.66861   0.89383   0.00000  Uiso   1.00
O84    O     0.11376   0.25657   0.72966   0.00000  Uiso   1.00
O85    O     0.70632   0.07291   0.30679   0.00000  Uiso   1.00
O86    O     0.96104   0.71655   0.83428   0.00000  Uiso   1.00
N87    N     0.01164   0.26181   0.77858   0.00000  Uiso   1.00
N88    N     0.72129   0.13091   0.18985   0.00000  Uiso   1.00
N89    N     0.90279   0.58956   0.85316   0.00000  Uiso   1.00
N90    N     0.10859   0.30434   0.81130   0.00000  Uiso   1.00
N91    N     0.81824   0.17344   0.22258   0.00000  Uiso   1.00
N92    N     0.99974   0.63210   0.88588   0.00000  Uiso   1.00
C93    C     0.30512   0.18232   0.93662   0.00000  Uiso   1.00
C94    C     0.23584   0.13392   0.92382   0.00000  Uiso   1.00
C95    C     0.21117   0.15969   0.87031   0.00000  Uiso   1.00
C96    C     0.14654   0.10649   0.86755   0.00000  Uiso   1.00
C97    C     0.04480   0.04293   0.84023   0.00000  Uiso   1.00
C98    C     0.27940   0.17271   0.01031   0.00000  Uiso   1.00
C99    C     0.29136   0.23109   0.02952   0.00000  Uiso   1.00
C100   C     0.26341   0.21054   0.09957   0.00000  Uiso   1.00
C101   C     0.22935   0.20721   0.20653   0.00000  Uiso   1.00
C102   C     0.35153   0.14419   0.93759   0.00000  Uiso   1.00
C103   C     0.42415   0.17859   0.89567   0.00000  Uiso   1.00
C104   C     0.45693   0.13402   0.90452   0.00000  Uiso   1.00
C105   C     0.53487   0.08640   0.89858   0.00000  Uiso   1.00
C106   C     0.23422   0.04201   0.02687   0.00000  Uiso   1.00
C107   C     0.19733   0.05771   0.97284   0.00000  Uiso   1.00
C108   C     0.13273   0.00445   0.97016   0.00000  Uiso   1.00
C109   C     0.10796   0.03014   0.91666   0.00000  Uiso   1.00
C110   C     0.24089   0.09650   0.05933   0.00000  Uiso   1.00
C111   C     0.21292   0.07586   0.12937   0.00000  Uiso   1.00
C112   C     0.22483   0.13419   0.14868   0.00000  Uiso   1.00
C113   C     0.31302   0.06797   0.98661   0.00000  Uiso   1.00
C114   C     0.34571   0.02335   0.99553   0.00000  Uiso   1.00
C115   C     0.41836   0.05767   0.95363   0.00000  Uiso   1.00
H116   H     0.33510   0.24166   0.89846   0.00000  Uiso   1.00
H117   H     0.24098   0.21868   0.83239   0.00000  Uiso   1.00
H118   H     0.32117   0.29006   0.99157   0.00000  Uiso   1.00
H119   H     0.45393   0.23756   0.85775   0.00000  Uiso   1.00
H120   H     0.11963   0.15959   0.78076   0.00000  Uiso   1.00
H121   H     0.28874   0.31012   0.11641   0.00000  Uiso   1.00
H122   H     0.56870   0.19942   0.83422   0.00000  Uiso   1.00
H123   H     0.20424   0.98268   0.06504   0.00000  Uiso   1.00
H124   H     0.10294   0.94548   0.00811   0.00000  Uiso   1.00
H125   H     0.18313   0.01687   0.16729   0.00000  Uiso   1.00
H126   H     0.31589   0.96438   0.03347   0.00000  Uiso   1.00
H127   H     0.00759   0.93786   0.92339   0.00000  Uiso   1.00
H128   H     0.17670   0.08839   0.25904   0.00000  Uiso   1.00
H129   H     0.45665   0.97769   0.97685   0.00000  Uiso   1.00
O130   O     0.99932   0.02893   0.81163   0.00000  Uiso   1.00
O131   O     0.22120   0.22643   0.25199   0.00000  Uiso   1.00
O132   O     0.58849   0.08119   0.88176   0.00000  Uiso   1.00
N133   N     0.10717   0.11251   0.82214   0.00000  Uiso   1.00
N134   N     0.26527   0.25325   0.13595   0.00000  Uiso   1.00
N135   N     0.52701   0.14975   0.87213   0.00000  Uiso   1.00
N136   N     0.04689   0.99319   0.89888   0.00000  Uiso   1.00
N137   N     0.20498   0.13393   0.21269   0.00000  Uiso   1.00
N138   N     0.46672   0.03044   0.94888   0.00000  Uiso   1.00
C139   C     0.12946   0.13105   0.42207   0.00000  Uiso   1.00
C140   C     0.17428   0.09535   0.44920   0.00000  Uiso   1.00
C141   C     0.23943   0.10671   0.40990   0.00000  Uiso   1.00
C142   C     0.27202   0.06891   0.44438   0.00000  Uiso   1.00
C143   C     0.34643   0.02072   0.47567   0.00000  Uiso   1.00
C144   C     0.12265   0.17292   0.46502   0.00000  Uiso   1.00
C145   C     0.14439   0.24950   0.43902   0.00000  Uiso   1.00
C146   C     0.13351   0.27699   0.48682   0.00000  Uiso   1.00
C147   C     0.12772   0.34922   0.54267   0.00000  Uiso   1.00
C148   C     0.05172   0.06504   0.44186   0.00000  Uiso   1.00
C149   C     0.01380   0.05092   0.39639   0.00000  Uiso   1.00
C150   C     0.94320   0.98760   0.42470   0.00000  Uiso   1.00
C151   C     0.82727   0.89233   0.44460   0.00000  Uiso   1.00
C152   C     0.07149   0.04372   0.55320   0.00000  Uiso   1.00
C153   C     0.14280   0.04792   0.52042   0.00000  Uiso   1.00
C154   C     0.17530   0.01008   0.55497   0.00000  Uiso   1.00
C155   C     0.24048   0.02138   0.51573   0.00000  Uiso   1.00
C156   C     0.09117   0.12549   0.53624   0.00000  Uiso   1.00
C157   C     0.08026   0.15287   0.58409   0.00000  Uiso   1.00
C158   C     0.10197   0.22947   0.55817   0.00000  Uiso   1.00
C159   C     0.02024   0.01760   0.51308   0.00000  Uiso   1.00
C160   C     0.94968   0.95429   0.54147   0.00000  Uiso   1.00
C161   C     0.91166   0.94008   0.49605   0.00000  Uiso   1.00
H162   H     0.15397   0.16799   0.36663   0.00000  Uiso   1.00
H163   H     0.26378   0.14343   0.35478   0.00000  Uiso   1.00
H164   H     0.16874   0.28619   0.38390   0.00000  Uiso   1.00
H165   H     0.03818   0.08764   0.34128   0.00000  Uiso   1.00
H166   H     0.37165   0.09530   0.37306   0.00000  Uiso   1.00
H167   H     0.17124   0.39632   0.43446   0.00000  Uiso   1.00
H168   H     0.89593   0.97765   0.34459   0.00000  Uiso   1.00
H169   H     0.04698   0.00679   0.60865   0.00000  Uiso   1.00
H170   H     0.15092   0.97338   0.61008   0.00000  Uiso   1.00
H171   H     0.05589   0.11615   0.63920   0.00000  Uiso   1.00
H172   H     0.92533   0.91760   0.59658   0.00000  Uiso   1.00
H173   H     0.28006   0.95729   0.58028   0.00000  Uiso   1.00
H174   H     0.07964   0.25831   0.64167   0.00000  Uiso   1.00
H175   H     0.80433   0.83963   0.55181   0.00000  Uiso   1.00
O176   O     0.39617   0.00725   0.47325   0.00000  Uiso   1.00
O177   O     0.13323   0.40217   0.55380   0.00000  Uiso   1.00
O178   O     0.77203   0.85288   0.43589   0.00000  Uiso   1.00
N179   N     0.33582   0.06739   0.42163   0.00000  Uiso   1.00
N180   N     0.14846   0.34883   0.47903   0.00000  Uiso   1.00
N181   N     0.89106   0.95742   0.39502   0.00000  Uiso   1.00
N182   N     0.28653   0.99313   0.53313   0.00000  Uiso   1.00
N183   N     0.09917   0.27457   0.59053   0.00000  Uiso   1.00
N184   N     0.84177   0.88315   0.50652   0.00000  Uiso   1.00
C185   C     0.55149   0.73458   0.44593   0.00000  Uiso   1.00
C186   C     0.54015   0.79290   0.46337   0.00000  Uiso   1.00
C187   C     0.58052   0.87108   0.42364   0.00000  Uiso   1.00
C188   C     0.56161   0.91472   0.44851   0.00000  Uiso   1.00
C189   C     0.55268   0.01037   0.46608   0.00000  Uiso   1.00
C190   C     0.47705   0.67936   0.44529   0.00000  Uiso   1.00
C191   C     0.46438   0.66207   0.39036   0.00000  Uiso   1.00
C192   C     0.39235   0.61013   0.40001   0.00000  Uiso   1.00
C193   C     0.28548   0.52946   0.38953   0.00000  Uiso   1.00
C194   C     0.56504   0.68931   0.50782   0.00000  Uiso   1.00
C195   C     0.62634   0.68035   0.50546   0.00000  Uiso   1.00
C196   C     0.62839   0.63676   0.56776   0.00000  Uiso   1.00
C197   C     0.65813   0.57153   0.65437   0.00000  Uiso   1.00
C198   C     0.44610   0.67306   0.56074   0.00000  Uiso   1.00
C199   C     0.48290   0.75949   0.52573   0.00000  Uiso   1.00
C200   C     0.46393   0.80302   0.55066   0.00000  Uiso   1.00
C201   C     0.50427   0.88125   0.51098   0.00000  Uiso   1.00
C202   C     0.41981   0.64595   0.50764   0.00000  Uiso   1.00
C203   C     0.34779   0.59401   0.51738   0.00000  Uiso   1.00
C204   C     0.33501   0.57665   0.46249   0.00000  Uiso   1.00
C205   C     0.50780   0.65589   0.57018   0.00000  Uiso   1.00
C206   C     0.50975   0.61229   0.63249   0.00000  Uiso   1.00
C207   C     0.57104   0.60328   0.63024   0.00000  Uiso   1.00
H208   H     0.59604   0.76059   0.39738   0.00000  Uiso   1.00
H209   H     0.62481   0.89692   0.37538   0.00000  Uiso   1.00
H210   H     0.50869   0.68794   0.34211   0.00000  Uiso   1.00
H211   H     0.67062   0.70622   0.45720   0.00000  Uiso   1.00
H212   H     0.63143   0.03333   0.37847   0.00000  Uiso   1.00
H213   H     0.38660   0.59266   0.30833   0.00000  Uiso   1.00
H214   H     0.72807   0.63121   0.55102   0.00000  Uiso   1.00
H215   H     0.40154   0.64704   0.60929   0.00000  Uiso   1.00
H216   H     0.41963   0.77715   0.59892   0.00000  Uiso   1.00
H217   H     0.30351   0.56816   0.56565   0.00000  Uiso   1.00
H218   H     0.46545   0.58644   0.68074   0.00000  Uiso   1.00
H219   H     0.46490   0.93612   0.55991   0.00000  Uiso   1.00
H220   H     0.22006   0.49544   0.48977   0.00000  Uiso   1.00
H221   H     0.56154   0.53399   0.73245   0.00000  Uiso   1.00
O222   O     0.56356   0.07236   0.45853   0.00000  Uiso   1.00
O223   O     0.24235   0.49420   0.36651   0.00000  Uiso   1.00
O224   O     0.69035   0.54478   0.68491   0.00000  Uiso   1.00
N225   N     0.58977   0.99260   0.42261   0.00000  Uiso   1.00
N226   N     0.36086   0.58060   0.35702   0.00000  Uiso   1.00
N227   N     0.68010   0.61663   0.58391   0.00000  Uiso   1.00
N228   N     0.50016   0.94029   0.52024   0.00000  Uiso   1.00
N229   N     0.27125   0.52829   0.45465   0.00000  Uiso   1.00
N230   N     0.59049   0.56432   0.68154   0.00000  Uiso   1.00
C231   C     0.72768   0.25084   0.56188   0.00000  Uiso   1.00
C232   C     0.64529   0.19219   0.59368   0.00000  Uiso   1.00
C233   C     0.60230   0.15434   0.56110   0.00000  Uiso   1.00
C234   C     0.52801   0.10280   0.59899   0.00000  Uiso   1.00
C235   C     0.40467   0.01370   0.63803   0.00000  Uiso   1.00
C236   C     0.76413   0.22135   0.61055   0.00000  Uiso   1.00
C237   C     0.82106   0.20804   0.59215   0.00000  Uiso   1.00
C238   C     0.84682   0.18105   0.64425   0.00000  Uiso   1.00
C239   C     0.90801   0.13728   0.70947   0.00000  Uiso   1.00
C240   C     0.73561   0.32237   0.56725   0.00000  Uiso   1.00
C241   C     0.76858   0.39401   0.51244   0.00000  Uiso   1.00
C242   C     0.77034   0.45209   0.52808   0.00000  Uiso   1.00
C243   C     0.78725   0.56517   0.52606   0.00000  Uiso   1.00
C244   C     0.67220   0.22660   0.68713   0.00000  Uiso   1.00
C245   C     0.61516   0.17902   0.66171   0.00000  Uiso   1.00
C246   C     0.54091   0.12753   0.69966   0.00000  Uiso   1.00
C247   C     0.49782   0.08961   0.66714   0.00000  Uiso   1.00
C248   C     0.73399   0.20818   0.67858   0.00000  Uiso   1.00
C249   C     0.75967   0.18122   0.73072   0.00000  Uiso   1.00
C250   C     0.81663   0.16786   0.71240   0.00000  Uiso   1.00
C251   C     0.70547   0.30921   0.63528   0.00000  Uiso   1.00
C252   C     0.70719   0.36719   0.65101   0.00000  Uiso   1.00
C253   C     0.74015   0.43890   0.59623   0.00000  Uiso   1.00
H254   H     0.75115   0.26109   0.50892   0.00000  Uiso   1.00
H255   H     0.62565   0.16454   0.50845   0.00000  Uiso   1.00
H256   H     0.84438   0.21823   0.53950   0.00000  Uiso   1.00
H257   H     0.79190   0.40417   0.45980   0.00000  Uiso   1.00
H258   H     0.47322   0.05167   0.53794   0.00000  Uiso   1.00
H259   H     0.93444   0.16491   0.60340   0.00000  Uiso   1.00
H260   H     0.82378   0.55701   0.43534   0.00000  Uiso   1.00
H261   H     0.64874   0.21635   0.74010   0.00000  Uiso   1.00
H262   H     0.51761   0.11735   0.75231   0.00000  Uiso   1.00
H263   H     0.73634   0.17104   0.78336   0.00000  Uiso   1.00
H264   H     0.68386   0.35698   0.70366   0.00000  Uiso   1.00
H265   H     0.38553   0.01337   0.73586   0.00000  Uiso   1.00
H266   H     0.84676   0.12661   0.80132   0.00000  Uiso   1.00
H267   H     0.73610   0.51870   0.63326   0.00000  Uiso   1.00
O268   O     0.34497   0.96818   0.64077   0.00000  Uiso   1.00
O269   O     0.95008   0.11676   0.72665   0.00000  Uiso   1.00
O270   O     0.80490   0.63118   0.50616   0.00000  Uiso   1.00
N271   N     0.47057   0.05626   0.58284   0.00000  Uiso   1.00
N272   N     0.90178   0.16212   0.64404   0.00000  Uiso   1.00
N273   N     0.79834   0.52870   0.48692   0.00000  Uiso   1.00
N274   N     0.42339   0.03565   0.68934   0.00000  Uiso   1.00
N275   N     0.85460   0.14151   0.75054   0.00000  Uiso   1.00
N276   N     0.75116   0.50809   0.59342   0.00000  Uiso   1.00
C277   C     0.14937   0.41047   0.18960   0.00000  Uiso   1.00
C278   C     0.11458   0.33489   0.18476   0.00000  Uiso   1.00
C279   C     0.05035   0.26890   0.23228   0.00000  Uiso   1.00
C280   C     0.02761   0.20573   0.21853   0.00000  Uiso   1.00
C281   C     0.96747   0.08795   0.21999   0.00000  Uiso   1.00
C282   C     0.15578   0.46935   0.12264   0.00000  Uiso   1.00
C283   C     0.12618   0.51643   0.11793   0.00000  Uiso   1.00
C284   C     0.13813   0.56646   0.05188   0.00000  Uiso   1.00
C285   C     0.14200   0.65748   0.95690   0.00000  Uiso   1.00
C286   C     0.22836   0.43071   0.18675   0.00000  Uiso   1.00
C287   C     0.25980   0.44532   0.23594   0.00000  Uiso   1.00
C288   C     0.33288   0.46282   0.22386   0.00000  Uiso   1.00
C289   C     0.44943   0.49383   0.22843   0.00000  Uiso   1.00
C290   C     0.22323   0.41561   0.08066   0.00000  Uiso   1.00
C291   C     0.15470   0.33768   0.12559   0.00000  Uiso   1.00
C292   C     0.13206   0.27459   0.11176   0.00000  Uiso   1.00
C293   C     0.06780   0.20852   0.15925   0.00000  Uiso   1.00
C294   C     0.19589   0.47214   0.06347   0.00000  Uiso   1.00
C295   C     0.20790   0.52212   0.99741   0.00000  Uiso   1.00
C296   C     0.17832   0.56926   0.99260   0.00000  Uiso   1.00
C297   C     0.26848   0.43350   0.12758   0.00000  Uiso   1.00
C298   C     0.34152   0.45099   0.11542   0.00000  Uiso   1.00
C299   C     0.37307   0.46562   0.16458   0.00000  Uiso   1.00
H300   H     0.11814   0.40831   0.23567   0.00000  Uiso   1.00
H301   H     0.01931   0.26677   0.27806   0.00000  Uiso   1.00
H302   H     0.09514   0.51427   0.16373   0.00000  Uiso   1.00
H303   H     0.22874   0.44315   0.28172   0.00000  Uiso   1.00
H304   H     0.92742   0.11109   0.29896   0.00000  Uiso   1.00
H305   H     0.08734   0.63296   0.05789   0.00000  Uiso   1.00
H306   H     0.36906   0.48301   0.30670   0.00000  Uiso   1.00
H307   H     0.25447   0.41779   0.03459   0.00000  Uiso   1.00
H308   H     0.16312   0.27676   0.06596   0.00000  Uiso   1.00
H309   H     0.23895   0.52426   0.95163   0.00000  Uiso   1.00
H310   H     0.37255   0.45315   0.06962   0.00000  Uiso   1.00
H311   H     0.04414   0.11920   0.12681   0.00000  Uiso   1.00
H312   H     0.20406   0.64108   0.88574   0.00000  Uiso   1.00
H313   H     0.48578   0.49112   0.13455   0.00000  Uiso   1.00
O314   O     0.92322   0.02221   0.23714   0.00000  Uiso   1.00
O315   O     0.13303   0.70690   0.92086   0.00000  Uiso   1.00
O316   O     0.50264   0.51016   0.24730   0.00000  Uiso   1.00
N317   N     0.96744   0.13235   0.25415   0.00000  Uiso   1.00
N318   N     0.11694   0.62026   0.02876   0.00000  Uiso   1.00
N319   N     0.38033   0.48009   0.26137   0.00000  Uiso   1.00
N320   N     0.03024   0.13671   0.16152   0.00000  Uiso   1.00
N321   N     0.17974   0.62463   0.93613   0.00000  Uiso   1.00
N322   N     0.44313   0.48445   0.16874   0.00000  Uiso   1.00
C323   C     0.00642   0.72461   0.12312   0.00000  Uiso   1.00
C324   C     0.94092   0.73765   0.12637   0.00000  Uiso   1.00
C325   C     0.91556   0.76194   0.17114   0.00000  Uiso   1.00
C326   C     0.85485   0.77044   0.16599   0.00000  Uiso   1.00
C327   C     0.75835   0.79305   0.17835   0.00000  Uiso   1.00
C328   C     0.05884   0.77432   0.04860   0.00000  Uiso   1.00
C329   C     0.13262   0.82944   0.02797   0.00000  Uiso   1.00
C330   C     0.17118   0.86880   0.95735   0.00000  Uiso   1.00
C331   C     0.25776   0.94830   0.84897   0.00000  Uiso   1.00
C332   C     0.97654   0.64260   0.13356   0.00000  Uiso   1.00
C333   C     0.98114   0.58695   0.18437   0.00000  Uiso   1.00
C334   C     0.95042   0.51541   0.18527   0.00000  Uiso   1.00
C335   C     0.90922   0.39040   0.20882   0.00000  Uiso   1.00
C336   C     0.94370   0.69650   0.03438   0.00000  Uiso   1.00
C337   C     0.90686   0.72239   0.07817   0.00000  Uiso   1.00
C338   C     0.84617   0.73085   0.07295   0.00000  Uiso   1.00
C339   C     0.82072   0.75514   0.11770   0.00000  Uiso   1.00
C340   C     0.02477   0.75906   0.00040   0.00000  Uiso   1.00
C341   C     0.06323   0.79834   0.92979   0.00000  Uiso   1.00
C342   C     0.13705   0.85351   0.90906   0.00000  Uiso   1.00
C343   C     0.94247   0.62733   0.08536   0.00000  Uiso   1.00
C344   C     0.91174   0.55586   0.08619   0.00000  Uiso   1.00
C345   C     0.91630   0.50012   0.13699   0.00000  Uiso   1.00
H346   H     0.03295   0.73649   0.16064   0.00000  Uiso   1.00
H347   H     0.94194   0.77375   0.20843   0.00000  Uiso   1.00
H348   H     0.15897   0.84123   0.06529   0.00000  Uiso   1.00
H349   H     0.00750   0.59879   0.22166   0.00000  Uiso   1.00
H350   H     0.82604   0.80835   0.24013   0.00000  Uiso   1.00
H351   H     0.28366   0.95062   0.93832   0.00000  Uiso   1.00
H352   H     0.96427   0.43938   0.26806   0.00000  Uiso   1.00
H353   H     0.91718   0.68462   0.99685   0.00000  Uiso   1.00
H354   H     0.81982   0.71903   0.03565   0.00000  Uiso   1.00
H355   H     0.03685   0.78651   0.89251   0.00000  Uiso   1.00
H356   H     0.88539   0.54407   0.04888   0.00000  Uiso   1.00
H357   H     0.72692   0.76395   0.09990   0.00000  Uiso   1.00
H358   H     0.18455   0.90621   0.79808   0.00000  Uiso   1.00
H359   H     0.86516   0.39497   0.12782   0.00000  Uiso   1.00
O360   O     0.71453   0.80975   0.19848   0.00000  Uiso   1.00
O361   O     0.31492   0.99638   0.80251   0.00000  Uiso   1.00
O362   O     0.89589   0.32565   0.23512   0.00000  Uiso   1.00
N363   N     0.81606   0.79317   0.20181   0.00000  Uiso   1.00
N364   N     0.24391   0.92619   0.91963   0.00000  Uiso   1.00
N365   N     0.94533   0.44823   0.22790   0.00000  Uiso   1.00
N366   N     0.76273   0.76927   0.12635   0.00000  Uiso   1.00
N367   N     0.19058   0.90229   0.84417   0.00000  Uiso   1.00
N368   N     0.89199   0.42433   0.15244   0.00000  Uiso   1.00
C369   C     0.57567   0.91823   0.20981   0.00000  Uiso   1.00
C370   C     0.65709   0.96532   0.16526   0.00000  Uiso   1.00
C371   C     0.71448   0.96008   0.18569   0.00000  Uiso   1.00
C372   C     0.78510   0.00812   0.13732   0.00000  Uiso   1.00
C373   C     0.90959   0.07340   0.07823   0.00000  Uiso   1.00
C374   C     0.53445   0.87903   0.16935   0.00000  Uiso   1.00
C375   C     0.48871   0.80124   0.19324   0.00000  Uiso   1.00
C376   C     0.45608   0.77665   0.14832   0.00000  Uiso   1.00
C377   C     0.39013   0.70796   0.09560   0.00000  Uiso   1.00
C378   C     0.55148   0.97519   0.21105   0.00000  Uiso   1.00
C379   C     0.52005   0.97823   0.27000   0.00000  Uiso   1.00
C380   C     0.50174   0.03458   0.26019   0.00000  Uiso   1.00
C381   C     0.46223   0.11519   0.27223   0.00000  Uiso   1.00
C382   C     0.59904   0.01289   0.08757   0.00000  Uiso   1.00
C383   C     0.66978   0.01674   0.09886   0.00000  Uiso   1.00
C384   C     0.74033   0.06481   0.05044   0.00000  Uiso   1.00
C385   C     0.79782   0.05963   0.07081   0.00000  Uiso   1.00
C386   C     0.54714   0.93044   0.10295   0.00000  Uiso   1.00
C387   C     0.51457   0.90596   0.05799   0.00000  Uiso   1.00
C388   C     0.46880   0.82815   0.08180   0.00000  Uiso   1.00
C389   C     0.56417   0.02660   0.14465   0.00000  Uiso   1.00
C390   C     0.54591   0.08296   0.13475   0.00000  Uiso   1.00
C391   C     0.51445   0.08609   0.19368   0.00000  Uiso   1.00
H392   H     0.56578   0.87820   0.26150   0.00000  Uiso   1.00
H393   H     0.70463   0.92028   0.23708   0.00000  Uiso   1.00
H394   H     0.47890   0.76147   0.24462   0.00000  Uiso   1.00
H395   H     0.51023   0.93843   0.32138   0.00000  Uiso   1.00
H396   H     0.86417   0.98959   0.18071   0.00000  Uiso   1.00
H397   H     0.38817   0.65472   0.19663   0.00000  Uiso   1.00
H398   H     0.45424   0.02789   0.35848   0.00000  Uiso   1.00
H399   H     0.60892   0.05291   0.03587   0.00000  Uiso   1.00
H400   H     0.75014   0.10459   0.99907   0.00000  Uiso   1.00
H401   H     0.52440   0.94577   0.00661   0.00000  Uiso   1.00
H402   H     0.55573   0.12274   0.08336   0.00000  Uiso   1.00
H403   H     0.90110   0.13917   0.98753   0.00000  Uiso   1.00
H404   H     0.42509   0.80431   0.00345   0.00000  Uiso   1.00
H405   H     0.49117   0.17748   0.16530   0.00000  Uiso   1.00
O406   O     0.97475   0.09520   0.06397   0.00000  Uiso   1.00
O407   O     0.35025   0.65587   0.08486   0.00000  Uiso   1.00
O408   O     0.43694   0.14546   0.29720   0.00000  Uiso   1.00
N409   N     0.85348   0.01771   0.14030   0.00000  Uiso   1.00
N410   N     0.40846   0.70463   0.15518   0.00000  Uiso   1.00
N411   N     0.47021   0.05350   0.30650   0.00000  Uiso   1.00
N412   N     0.87336   0.09820   0.03635   0.00000  Uiso   1.00
N413   N     0.42833   0.78512   0.05123   0.00000  Uiso   1.00
N414   N     0.49009   0.13399   0.20255   0.00000  Uiso   1.00
C415   C     0.67098   0.85241   0.65808   0.00000  Uiso   1.00
C416   C     0.64567   0.87397   0.71328   0.00000  Uiso   1.00
C417   C     0.57302   0.85071   0.74656   0.00000  Uiso   1.00
C418   C     0.56133   0.87662   0.79547   0.00000  Uiso   1.00
C419   C     0.51307   0.90290   0.87886   0.00000  Uiso   1.00
C420   C     0.72623   0.92719   0.59508   0.00000  Uiso   1.00
C421   C     0.72132   0.94868   0.52898   0.00000  Uiso   1.00
C422   C     0.77746   0.01939   0.47840   0.00000  Uiso   1.00
C423   C     0.85429   0.12827   0.37828   0.00000  Uiso   1.00
C424   C     0.71537   0.81597   0.68487   0.00000  Uiso   1.00
C425   C     0.70134   0.74394   0.69424   0.00000  Uiso   1.00
C426   C     0.74835   0.72102   0.71924   0.00000  Uiso   1.00
C427   C     0.80832   0.65721   0.75852   0.00000  Uiso   1.00
C428   C     0.77943   0.93978   0.68578   0.00000  Uiso   1.00
C429   C     0.70457   0.92142   0.72832   0.00000  Uiso   1.00
C430   C     0.69300   0.94737   0.77720   0.00000  Uiso   1.00
C431   C     0.62034   0.92416   0.81055   0.00000  Uiso   1.00
C432   C     0.78513   0.97464   0.61012   0.00000  Uiso   1.00
C433   C     0.84130   0.04534   0.55963   0.00000  Uiso   1.00
C434   C     0.83647   0.06693   0.49347   0.00000  Uiso   1.00
C435   C     0.77427   0.86342   0.69991   0.00000  Uiso   1.00
C436   C     0.82132   0.84061   0.72489   0.00000  Uiso   1.00
C437   C     0.80736   0.76856   0.73431   0.00000  Uiso   1.00
H438   H     0.62513   0.81547   0.64637   0.00000  Uiso   1.00
H439   H     0.52745   0.81399   0.73489   0.00000  Uiso   1.00
H440   H     0.67573   0.91194   0.51736   0.00000  Uiso   1.00
H441   H     0.65575   0.70724   0.68260   0.00000  Uiso   1.00
H442   H     0.44513   0.83330   0.83966   0.00000  Uiso   1.00
H443   H     0.75780   0.03982   0.38096   0.00000  Uiso   1.00
H444   H     0.71568   0.60816   0.72940   0.00000  Uiso   1.00
H445   H     0.82529   0.97673   0.69749   0.00000  Uiso   1.00
H446   H     0.73859   0.98410   0.78883   0.00000  Uiso   1.00
H447   H     0.88687   0.08204   0.57129   0.00000  Uiso   1.00
H448   H     0.86689   0.87734   0.73653   0.00000  Uiso   1.00
H449   H     0.61650   0.97137   0.88343   0.00000  Uiso   1.00
H450   H     0.92918   0.17788   0.42473   0.00000  Uiso   1.00
H451   H     0.88705   0.74623   0.77317   0.00000  Uiso   1.00
O452   O     0.47017   0.90430   0.92069   0.00000  Uiso   1.00
O453   O     0.88040   0.17522   0.31890   0.00000  Uiso   1.00
O454   O     0.82512   0.60890   0.77604   0.00000  Uiso   1.00
N455   N     0.49736   0.86477   0.83744   0.00000  Uiso   1.00
N456   N     0.78968   0.05786   0.40858   0.00000  Uiso   1.00
N457   N     0.75031   0.65430   0.73433   0.00000  Uiso   1.00
N458   N     0.58957   0.93907   0.86099   0.00000  Uiso   1.00
N459   N     0.88190   0.13215   0.43214   0.00000  Uiso   1.00
N460   N     0.84253   0.72860   0.75788   0.00000  Uiso   1.00
C461   C     0.45600   0.34413   0.68618   0.00000  Uiso   1.00
C462   C     0.38645   0.28022   0.68683   0.00000  Uiso   1.00
C463   C     0.36980   0.20548   0.70683   0.00000  Uiso   1.00
C464   C     0.30342   0.15562   0.70372   0.00000  Uiso   1.00
C465   C     0.20274   0.05273   0.70810   0.00000  Uiso   1.00
C466   C     0.49162   0.40702   0.61240   0.00000  Uiso   1.00
C467   C     0.56340   0.43888   0.56982   0.00000  Uiso   1.00
C468   C     0.58555   0.49576   0.50406   0.00000  Uiso   1.00
C469   C     0.64817   0.58976   0.39289   0.00000  Uiso   1.00
C470   C     0.42942   0.37556   0.73115   0.00000  Uiso   1.00
C471   C     0.44892   0.38100   0.78841   0.00000  Uiso   1.00
C472   C     0.41872   0.41142   0.82261   0.00000  Uiso   1.00
C473   C     0.38476   0.45659   0.89582   0.00000  Uiso   1.00
C474   C     0.36771   0.38850   0.64510   0.00000  Uiso   1.00
C475   C     0.33850   0.30433   0.66452   0.00000  Uiso   1.00
C476   C     0.27212   0.25456   0.66138   0.00000  Uiso   1.00
C477   C     0.25538   0.17976   0.68137   0.00000  Uiso   1.00
C478   C     0.44367   0.43112   0.59009   0.00000  Uiso   1.00
C479   C     0.46573   0.48797   0.52437   0.00000  Uiso   1.00
C480   C     0.53752   0.51991   0.48170   0.00000  Uiso   1.00
C481   C     0.38147   0.39966   0.70884   0.00000  Uiso   1.00
C482   C     0.35124   0.43009   0.74296   0.00000  Uiso   1.00
C483   C     0.37068   0.43557   0.80026   0.00000  Uiso   1.00
H484   H     0.49333   0.32537   0.70355   0.00000  Uiso   1.00
H485   H     0.40693   0.18685   0.72409   0.00000  Uiso   1.00
H486   H     0.60050   0.42022   0.58710   0.00000  Uiso   1.00
H487   H     0.48603   0.36235   0.80566   0.00000  Uiso   1.00
H488   H     0.28999   0.04391   0.73700   0.00000  Uiso   1.00
H489   H     0.69816   0.53600   0.44817   0.00000  Uiso   1.00
H490   H     0.45678   0.41397   0.90903   0.00000  Uiso   1.00
H491   H     0.33038   0.40727   0.62773   0.00000  Uiso   1.00
H492   H     0.23503   0.27323   0.64411   0.00000  Uiso   1.00
H493   H     0.42860   0.50660   0.50712   0.00000  Uiso   1.00
H494   H     0.31413   0.44873   0.72568   0.00000  Uiso   1.00
H495   H     0.15048   0.11402   0.67208   0.00000  Uiso   1.00
H496   H     0.55865   0.60612   0.38325   0.00000  Uiso   1.00
H497   H     0.31726   0.48408   0.84411   0.00000  Uiso   1.00
O498   O     0.16046   0.98932   0.71667   0.00000  Uiso   1.00
O499   O     0.69596   0.63494   0.33773   0.00000  Uiso   1.00
O500   O     0.37927   0.47483   0.94237   0.00000  Uiso   1.00
N501   N     0.27024   0.07880   0.71949   0.00000  Uiso   1.00
N502   N     0.65184   0.53887   0.44944   0.00000  Uiso   1.00
N503   N     0.42619   0.42480   0.88030   0.00000  Uiso   1.00
N504   N     0.19516   0.11652   0.68456   0.00000  Uiso   1.00
N505   N     0.57677   0.57659   0.41451   0.00000  Uiso   1.00
N506   N     0.35112   0.46252   0.84537   0.00000  Uiso   1.00
C507   C     0.08704   0.71130   0.65195   0.00000  Uiso   1.00
C508   C     0.15508   0.73760   0.67445   0.00000  Uiso   1.00
C509   C     0.15835   0.75055   0.73286   0.00000  Uiso   1.00
C510   C     0.22575   0.77442   0.74439   0.00000  Uiso   1.00
C511   C     0.32199   0.81368   0.78619   0.00000  Uiso   1.00
C512   C     0.10986   0.77079   0.57849   0.00000  Uiso   1.00
C513   C     0.07510   0.81164   0.55623   0.00000  Uiso   1.00
C514   C     0.10443   0.86344   0.48698   0.00000  Uiso   1.00
C515   C     0.13043   0.95420   0.37981   0.00000  Uiso   1.00
C516   C     0.07422   0.63879   0.64575   0.00000  Uiso   1.00
C517   C     0.00949   0.56866   0.68002   0.00000  Uiso   1.00
C518   C     0.00880   0.50932   0.66739   0.00000  Uiso   1.00
C519   C     0.97946   0.39513   0.66465   0.00000  Uiso   1.00
C520   C     0.20090   0.73065   0.56856   0.00000  Uiso   1.00
C521   C     0.21692   0.74810   0.62915   0.00000  Uiso   1.00
C522   C     0.28433   0.77195   0.64060   0.00000  Uiso   1.00
C523   C     0.28770   0.78494   0.69901   0.00000  Uiso   1.00
C524   C     0.17170   0.78130   0.53320   0.00000  Uiso   1.00
C525   C     0.20108   0.83304   0.46397   0.00000  Uiso   1.00
C526   C     0.16638   0.87397   0.44160   0.00000  Uiso   1.00
C527   C     0.13606   0.64929   0.60046   0.00000  Uiso   1.00
C528   C     0.13546   0.59006   0.58777   0.00000  Uiso   1.00
C529   C     0.07075   0.51985   0.62202   0.00000  Uiso   1.00
H530   H     0.03889   0.70313   0.68721   0.00000  Uiso   1.00
H531   H     0.11048   0.74242   0.76789   0.00000  Uiso   1.00
H532   H     0.02724   0.80350   0.59129   0.00000  Uiso   1.00
H533   H     0.96164   0.56055   0.71507   0.00000  Uiso   1.00
H534   H     0.21714   0.79065   0.83736   0.00000  Uiso   1.00
H535   H     0.04160   0.91941   0.46498   0.00000  Uiso   1.00
H536   H     0.90327   0.40710   0.72599   0.00000  Uiso   1.00
H537   H     0.24905   0.73883   0.53329   0.00000  Uiso   1.00
H538   H     0.33217   0.78008   0.60553   0.00000  Uiso   1.00
H539   H     0.24893   0.84115   0.42893   0.00000  Uiso   1.00
H540   H     0.18333   0.59821   0.55271   0.00000  Uiso   1.00
H541   H     0.39707   0.82121   0.70558   0.00000  Uiso   1.00
H542   H     0.22153   0.94997   0.33320   0.00000  Uiso   1.00
H543   H     0.08320   0.43767   0.59422   0.00000  Uiso   1.00
O544   O     0.35800   0.83245   0.82176   0.00000  Uiso   1.00
O545   O     0.12770   0.00136   0.33321   0.00000  Uiso   1.00
O546   O     0.94621   0.32924   0.67566   0.00000  Uiso   1.00
N547   N     0.24807   0.79217   0.79644   0.00000  Uiso   1.00
N548   N     0.08397   0.91256   0.44829   0.00000  Uiso   1.00
N549   N     0.95463   0.43360   0.69230   0.00000  Uiso   1.00
N550   N     0.34489   0.80861   0.72553   0.00000  Uiso   1.00
N551   N     0.18078   0.92900   0.37738   0.00000  Uiso   1.00
N552   N     0.05145   0.45005   0.62139   0.00000  Uiso   1.00
