data_job_02330
_audit_creation_date              2018-12-19
_audit_creation_method            'Materials Studio'
_symmetry_space_group_name_H-M    'P1'
_symmetry_Int_Tables_number       1
_symmetry_cell_setting            triclinic
loop_
_symmetry_equiv_pos_as_xyz
  x,y,z
_cell_length_a                    18.5797
_cell_length_b                    12.0706
_cell_length_c                    23.1792
_cell_angle_alpha                 90.0000
_cell_angle_beta                  90.0000
_cell_angle_gamma                 90.0000
loop_
_atom_site_label
_atom_site_type_symbol
_atom_site_fract_x
_atom_site_fract_y
_atom_site_fract_z
_atom_site_U_iso_or_equiv
_atom_site_adp_type
_atom_site_occupancy
C1     C     0.41103   0.88884   0.07563   0.00000  Uiso   1.00
C2     C     0.39877   0.81693   0.02244   0.00000  Uiso   1.00
C3     C     0.34889   0.83721   0.97915   0.00000  Uiso   1.00
C4     C     0.34598   0.76152   0.93411   0.00000  Uiso   1.00
C5     C     0.32001   0.66391   0.85178   0.00000  Uiso   1.00
C6     C     0.40100   0.81270   0.12751   0.00000  Uiso   1.00
C7     C     0.35301   0.82944   0.17256   0.00000  Uiso   1.00
C8     C     0.35198   0.75019   0.21596   0.00000  Uiso   1.00
C9     C     0.32951   0.64607   0.29678   0.00000  Uiso   1.00
C10    C     0.49056   0.92005   0.07489   0.00000  Uiso   1.00
C11    C     0.51787   0.02705   0.07571   0.00000  Uiso   1.00
C12    C     0.59224   0.03819   0.07484   0.00000  Uiso   1.00
C13    C     0.70882   0.10074   0.07395   0.00000  Uiso   1.00
C14    C     0.49455   0.71835   0.07264   0.00000  Uiso   1.00
C15    C     0.44413   0.72432   0.02082   0.00000  Uiso   1.00
C16    C     0.44129   0.64858   0.97583   0.00000  Uiso   1.00
C17    C     0.39142   0.66875   0.93247   0.00000  Uiso   1.00
C18    C     0.44636   0.72010   0.12588   0.00000  Uiso   1.00
C19    C     0.44541   0.64081   0.16924   0.00000  Uiso   1.00
C20    C     0.39742   0.65742   0.21434   0.00000  Uiso   1.00
C21    C     0.53592   0.82745   0.07326   0.00000  Uiso   1.00
C22    C     0.61026   0.83842   0.07239   0.00000  Uiso   1.00
C23    C     0.63768   0.94542   0.07321   0.00000  Uiso   1.00
H24    H     0.37572   0.96093   0.07690   0.00000  Uiso   1.00
H25    H     0.31379   0.90888   0.98042   0.00000  Uiso   1.00
H26    H     0.31792   0.90112   0.17381   0.00000  Uiso   1.00
H27    H     0.48275   0.09869   0.07697   0.00000  Uiso   1.00
H28    H     0.26513   0.81031   0.87275   0.00000  Uiso   1.00
H29    H     0.27383   0.79396   0.28052   0.00000  Uiso   1.00
H30    H     0.62141   0.21059   0.07633   0.00000  Uiso   1.00
H31    H     0.52987   0.64625   0.07137   0.00000  Uiso   1.00
H32    H     0.47640   0.57693   0.97458   0.00000  Uiso   1.00
H33    H     0.48052   0.56916   0.16797   0.00000  Uiso   1.00
H34    H     0.64535   0.76674   0.07113   0.00000  Uiso   1.00
H35    H     0.39710   0.54088   0.86801   0.00000  Uiso   1.00
H36    H     0.40581   0.52453   0.27578   0.00000  Uiso   1.00
H37    H     0.75339   0.94116   0.07159   0.00000  Uiso   1.00
O38    O     0.29315   0.63565   0.80682   0.00000  Uiso   1.00
O39    O     0.30458   0.61422   0.34180   0.00000  Uiso   1.00
O40    O     0.76059   0.16083   0.07391   0.00000  Uiso   1.00
N41    N     0.30354   0.75642   0.88491   0.00000  Uiso   1.00
N42    N     0.31167   0.74113   0.26615   0.00000  Uiso   1.00
N43    N     0.63662   0.13065   0.07526   0.00000  Uiso   1.00
N44    N     0.37455   0.61145   0.88236   0.00000  Uiso   1.00
N45    N     0.38268   0.59615   0.26359   0.00000  Uiso   1.00
N46    N     0.70764   0.98567   0.07271   0.00000  Uiso   1.00
C47    C     0.91103   0.38884   0.07563   0.00000  Uiso   1.00
C48    C     0.89877   0.31693   0.02244   0.00000  Uiso   1.00
C49    C     0.84889   0.33721   0.97915   0.00000  Uiso   1.00
C50    C     0.84598   0.26152   0.93411   0.00000  Uiso   1.00
C51    C     0.82001   0.16391   0.85178   0.00000  Uiso   1.00
C52    C     0.90100   0.31270   0.12751   0.00000  Uiso   1.00
C53    C     0.85301   0.32944   0.17256   0.00000  Uiso   1.00
C54    C     0.85198   0.25019   0.21596   0.00000  Uiso   1.00
C55    C     0.82951   0.14607   0.29678   0.00000  Uiso   1.00
C56    C     0.99056   0.42005   0.07489   0.00000  Uiso   1.00
C57    C     0.01787   0.52705   0.07571   0.00000  Uiso   1.00
C58    C     0.09224   0.53819   0.07484   0.00000  Uiso   1.00
C59    C     0.20882   0.60074   0.07395   0.00000  Uiso   1.00
C60    C     0.99455   0.21835   0.07264   0.00000  Uiso   1.00
C61    C     0.94413   0.22432   0.02082   0.00000  Uiso   1.00
C62    C     0.94129   0.14858   0.97583   0.00000  Uiso   1.00
C63    C     0.89142   0.16875   0.93247   0.00000  Uiso   1.00
C64    C     0.94636   0.22010   0.12588   0.00000  Uiso   1.00
C65    C     0.94541   0.14081   0.16924   0.00000  Uiso   1.00
C66    C     0.89742   0.15742   0.21434   0.00000  Uiso   1.00
C67    C     0.03592   0.32745   0.07326   0.00000  Uiso   1.00
C68    C     0.11026   0.33842   0.07239   0.00000  Uiso   1.00
C69    C     0.13768   0.44542   0.07321   0.00000  Uiso   1.00
H70    H     0.87572   0.46093   0.07690   0.00000  Uiso   1.00
H71    H     0.81379   0.40888   0.98042   0.00000  Uiso   1.00
H72    H     0.81792   0.40112   0.17381   0.00000  Uiso   1.00
H73    H     0.98275   0.59869   0.07697   0.00000  Uiso   1.00
H74    H     0.76513   0.31031   0.87275   0.00000  Uiso   1.00
H75    H     0.77383   0.29396   0.28052   0.00000  Uiso   1.00
H76    H     0.12141   0.71059   0.07633   0.00000  Uiso   1.00
H77    H     0.02987   0.14625   0.07137   0.00000  Uiso   1.00
H78    H     0.97640   0.07693   0.97458   0.00000  Uiso   1.00
H79    H     0.98052   0.06916   0.16797   0.00000  Uiso   1.00
H80    H     0.14535   0.26674   0.07113   0.00000  Uiso   1.00
H81    H     0.89710   0.04088   0.86801   0.00000  Uiso   1.00
H82    H     0.90581   0.02453   0.27578   0.00000  Uiso   1.00
H83    H     0.25339   0.44116   0.07159   0.00000  Uiso   1.00
O84    O     0.79315   0.13565   0.80682   0.00000  Uiso   1.00
O85    O     0.80458   0.11422   0.34180   0.00000  Uiso   1.00
O86    O     0.26059   0.66083   0.07391   0.00000  Uiso   1.00
N87    N     0.80354   0.25642   0.88491   0.00000  Uiso   1.00
N88    N     0.81167   0.24113   0.26615   0.00000  Uiso   1.00
N89    N     0.13662   0.63065   0.07526   0.00000  Uiso   1.00
N90    N     0.87455   0.11145   0.88236   0.00000  Uiso   1.00
N91    N     0.88268   0.09615   0.26359   0.00000  Uiso   1.00
N92    N     0.20764   0.48567   0.07271   0.00000  Uiso   1.00
C93    C     0.58897   0.11116   0.57563   0.00000  Uiso   1.00
C94    C     0.60123   0.18307   0.52244   0.00000  Uiso   1.00
C95    C     0.65111   0.16279   0.47915   0.00000  Uiso   1.00
C96    C     0.65402   0.23848   0.43411   0.00000  Uiso   1.00
C97    C     0.67999   0.33609   0.35178   0.00000  Uiso   1.00
C98    C     0.59900   0.18730   0.62751   0.00000  Uiso   1.00
C99    C     0.64699   0.17056   0.67256   0.00000  Uiso   1.00
C100   C     0.64802   0.24981   0.71596   0.00000  Uiso   1.00
C101   C     0.67049   0.35393   0.79678   0.00000  Uiso   1.00
C102   C     0.50944   0.07995   0.57489   0.00000  Uiso   1.00
C103   C     0.48213   0.97295   0.57571   0.00000  Uiso   1.00
C104   C     0.40776   0.96181   0.57484   0.00000  Uiso   1.00
C105   C     0.29118   0.89926   0.57395   0.00000  Uiso   1.00
C106   C     0.50545   0.28165   0.57264   0.00000  Uiso   1.00
C107   C     0.55587   0.27568   0.52082   0.00000  Uiso   1.00
C108   C     0.55871   0.35142   0.47583   0.00000  Uiso   1.00
C109   C     0.60858   0.33125   0.43247   0.00000  Uiso   1.00
C110   C     0.55364   0.27990   0.62588   0.00000  Uiso   1.00
C111   C     0.55459   0.35919   0.66924   0.00000  Uiso   1.00
C112   C     0.60258   0.34258   0.71434   0.00000  Uiso   1.00
C113   C     0.46408   0.17255   0.57326   0.00000  Uiso   1.00
C114   C     0.38974   0.16158   0.57239   0.00000  Uiso   1.00
C115   C     0.36232   0.05458   0.57321   0.00000  Uiso   1.00
H116   H     0.62428   0.03907   0.57690   0.00000  Uiso   1.00
H117   H     0.68621   0.09112   0.48042   0.00000  Uiso   1.00
H118   H     0.68208   0.09888   0.67381   0.00000  Uiso   1.00
H119   H     0.51725   0.90131   0.57697   0.00000  Uiso   1.00
H120   H     0.73487   0.18969   0.37275   0.00000  Uiso   1.00
H121   H     0.72617   0.20604   0.78052   0.00000  Uiso   1.00
H122   H     0.37859   0.78941   0.57633   0.00000  Uiso   1.00
H123   H     0.47013   0.35375   0.57137   0.00000  Uiso   1.00
H124   H     0.52360   0.42307   0.47458   0.00000  Uiso   1.00
H125   H     0.51948   0.43084   0.66797   0.00000  Uiso   1.00
H126   H     0.35465   0.23326   0.57113   0.00000  Uiso   1.00
H127   H     0.60290   0.45912   0.36801   0.00000  Uiso   1.00
H128   H     0.59419   0.47547   0.77578   0.00000  Uiso   1.00
H129   H     0.24661   0.05884   0.57159   0.00000  Uiso   1.00
O130   O     0.70685   0.36435   0.30682   0.00000  Uiso   1.00
O131   O     0.69542   0.38578   0.84180   0.00000  Uiso   1.00
O132   O     0.23941   0.83917   0.57391   0.00000  Uiso   1.00
N133   N     0.69646   0.24358   0.38491   0.00000  Uiso   1.00
N134   N     0.68833   0.25887   0.76615   0.00000  Uiso   1.00
N135   N     0.36338   0.86935   0.57526   0.00000  Uiso   1.00
N136   N     0.62545   0.38855   0.38236   0.00000  Uiso   1.00
N137   N     0.61732   0.40385   0.76359   0.00000  Uiso   1.00
N138   N     0.29236   0.01433   0.57271   0.00000  Uiso   1.00
C139   C     0.08897   0.61116   0.57563   0.00000  Uiso   1.00
C140   C     0.10123   0.68307   0.52244   0.00000  Uiso   1.00
C141   C     0.15111   0.66279   0.47915   0.00000  Uiso   1.00
C142   C     0.15402   0.73848   0.43411   0.00000  Uiso   1.00
C143   C     0.17999   0.83609   0.35178   0.00000  Uiso   1.00
C144   C     0.09900   0.68730   0.62751   0.00000  Uiso   1.00
C145   C     0.14699   0.67056   0.67256   0.00000  Uiso   1.00
C146   C     0.14802   0.74981   0.71596   0.00000  Uiso   1.00
C147   C     0.17049   0.85393   0.79678   0.00000  Uiso   1.00
C148   C     0.00944   0.57995   0.57489   0.00000  Uiso   1.00
C149   C     0.98213   0.47295   0.57571   0.00000  Uiso   1.00
C150   C     0.90776   0.46181   0.57484   0.00000  Uiso   1.00
C151   C     0.79118   0.39926   0.57395   0.00000  Uiso   1.00
C152   C     0.00545   0.78165   0.57264   0.00000  Uiso   1.00
C153   C     0.05587   0.77568   0.52082   0.00000  Uiso   1.00
C154   C     0.05871   0.85142   0.47583   0.00000  Uiso   1.00
C155   C     0.10858   0.83125   0.43247   0.00000  Uiso   1.00
C156   C     0.05364   0.77990   0.62588   0.00000  Uiso   1.00
C157   C     0.05459   0.85919   0.66924   0.00000  Uiso   1.00
C158   C     0.10258   0.84258   0.71434   0.00000  Uiso   1.00
C159   C     0.96408   0.67255   0.57326   0.00000  Uiso   1.00
C160   C     0.88974   0.66158   0.57239   0.00000  Uiso   1.00
C161   C     0.86232   0.55458   0.57321   0.00000  Uiso   1.00
H162   H     0.12428   0.53907   0.57690   0.00000  Uiso   1.00
H163   H     0.18621   0.59112   0.48042   0.00000  Uiso   1.00
H164   H     0.18208   0.59888   0.67381   0.00000  Uiso   1.00
H165   H     0.01725   0.40131   0.57697   0.00000  Uiso   1.00
H166   H     0.23487   0.68969   0.37275   0.00000  Uiso   1.00
H167   H     0.22617   0.70604   0.78052   0.00000  Uiso   1.00
H168   H     0.87859   0.28941   0.57633   0.00000  Uiso   1.00
H169   H     0.97013   0.85375   0.57137   0.00000  Uiso   1.00
H170   H     0.02360   0.92307   0.47458   0.00000  Uiso   1.00
H171   H     0.01948   0.93084   0.66797   0.00000  Uiso   1.00
H172   H     0.85465   0.73326   0.57113   0.00000  Uiso   1.00
H173   H     0.10290   0.95912   0.36801   0.00000  Uiso   1.00
H174   H     0.09419   0.97547   0.77578   0.00000  Uiso   1.00
H175   H     0.74661   0.55884   0.57159   0.00000  Uiso   1.00
O176   O     0.20685   0.86435   0.30682   0.00000  Uiso   1.00
O177   O     0.19542   0.88578   0.84180   0.00000  Uiso   1.00
O178   O     0.73941   0.33917   0.57391   0.00000  Uiso   1.00
N179   N     0.19646   0.74358   0.38491   0.00000  Uiso   1.00
N180   N     0.18833   0.75887   0.76615   0.00000  Uiso   1.00
N181   N     0.86338   0.36935   0.57526   0.00000  Uiso   1.00
N182   N     0.12545   0.88855   0.38236   0.00000  Uiso   1.00
N183   N     0.11732   0.90385   0.76359   0.00000  Uiso   1.00
N184   N     0.79236   0.51433   0.57271   0.00000  Uiso   1.00
C185   C     0.58897   0.88884   0.42437   0.00000  Uiso   1.00
C186   C     0.60123   0.81693   0.47756   0.00000  Uiso   1.00
C187   C     0.65111   0.83721   0.52085   0.00000  Uiso   1.00
C188   C     0.65402   0.76152   0.56589   0.00000  Uiso   1.00
C189   C     0.67999   0.66391   0.64822   0.00000  Uiso   1.00
C190   C     0.59900   0.81270   0.37249   0.00000  Uiso   1.00
C191   C     0.64699   0.82944   0.32744   0.00000  Uiso   1.00
C192   C     0.64802   0.75019   0.28404   0.00000  Uiso   1.00
C193   C     0.67049   0.64607   0.20322   0.00000  Uiso   1.00
C194   C     0.50944   0.92005   0.42511   0.00000  Uiso   1.00
C195   C     0.48213   0.02705   0.42429   0.00000  Uiso   1.00
C196   C     0.40776   0.03819   0.42516   0.00000  Uiso   1.00
C197   C     0.29118   0.10074   0.42605   0.00000  Uiso   1.00
C198   C     0.50545   0.71835   0.42736   0.00000  Uiso   1.00
C199   C     0.55587   0.72432   0.47918   0.00000  Uiso   1.00
C200   C     0.55871   0.64858   0.52417   0.00000  Uiso   1.00
C201   C     0.60858   0.66875   0.56753   0.00000  Uiso   1.00
C202   C     0.55364   0.72010   0.37412   0.00000  Uiso   1.00
C203   C     0.55459   0.64081   0.33076   0.00000  Uiso   1.00
C204   C     0.60258   0.65742   0.28566   0.00000  Uiso   1.00
C205   C     0.46408   0.82745   0.42674   0.00000  Uiso   1.00
C206   C     0.38974   0.83842   0.42761   0.00000  Uiso   1.00
C207   C     0.36232   0.94542   0.42679   0.00000  Uiso   1.00
H208   H     0.62428   0.96093   0.42310   0.00000  Uiso   1.00
H209   H     0.68621   0.90888   0.51958   0.00000  Uiso   1.00
H210   H     0.68208   0.90112   0.32619   0.00000  Uiso   1.00
H211   H     0.51725   0.09869   0.42303   0.00000  Uiso   1.00
H212   H     0.73487   0.81031   0.62725   0.00000  Uiso   1.00
H213   H     0.72617   0.79396   0.21948   0.00000  Uiso   1.00
H214   H     0.37859   0.21059   0.42367   0.00000  Uiso   1.00
H215   H     0.47013   0.64625   0.42863   0.00000  Uiso   1.00
H216   H     0.52360   0.57693   0.52542   0.00000  Uiso   1.00
H217   H     0.51948   0.56916   0.33203   0.00000  Uiso   1.00
H218   H     0.35465   0.76674   0.42887   0.00000  Uiso   1.00
H219   H     0.60290   0.54088   0.63199   0.00000  Uiso   1.00
H220   H     0.59419   0.52453   0.22422   0.00000  Uiso   1.00
H221   H     0.24661   0.94116   0.42841   0.00000  Uiso   1.00
O222   O     0.70685   0.63565   0.69318   0.00000  Uiso   1.00
O223   O     0.69542   0.61422   0.15820   0.00000  Uiso   1.00
O224   O     0.23941   0.16083   0.42609   0.00000  Uiso   1.00
N225   N     0.69646   0.75642   0.61509   0.00000  Uiso   1.00
N226   N     0.68833   0.74113   0.23385   0.00000  Uiso   1.00
N227   N     0.36338   0.13065   0.42474   0.00000  Uiso   1.00
N228   N     0.62545   0.61145   0.61764   0.00000  Uiso   1.00
N229   N     0.61732   0.59615   0.23641   0.00000  Uiso   1.00
N230   N     0.29236   0.98567   0.42729   0.00000  Uiso   1.00
C231   C     0.08897   0.38884   0.42437   0.00000  Uiso   1.00
C232   C     0.10123   0.31693   0.47756   0.00000  Uiso   1.00
C233   C     0.15111   0.33721   0.52085   0.00000  Uiso   1.00
C234   C     0.15402   0.26152   0.56589   0.00000  Uiso   1.00
C235   C     0.17999   0.16391   0.64822   0.00000  Uiso   1.00
C236   C     0.09900   0.31270   0.37249   0.00000  Uiso   1.00
C237   C     0.14699   0.32944   0.32744   0.00000  Uiso   1.00
C238   C     0.14802   0.25019   0.28404   0.00000  Uiso   1.00
C239   C     0.17049   0.14607   0.20322   0.00000  Uiso   1.00
C240   C     0.00944   0.42005   0.42511   0.00000  Uiso   1.00
C241   C     0.98213   0.52705   0.42429   0.00000  Uiso   1.00
C242   C     0.90776   0.53819   0.42516   0.00000  Uiso   1.00
C243   C     0.79118   0.60074   0.42605   0.00000  Uiso   1.00
C244   C     0.00545   0.21835   0.42736   0.00000  Uiso   1.00
C245   C     0.05587   0.22432   0.47918   0.00000  Uiso   1.00
C246   C     0.05871   0.14858   0.52417   0.00000  Uiso   1.00
C247   C     0.10858   0.16875   0.56753   0.00000  Uiso   1.00
C248   C     0.05364   0.22010   0.37412   0.00000  Uiso   1.00
C249   C     0.05459   0.14081   0.33076   0.00000  Uiso   1.00
C250   C     0.10258   0.15742   0.28566   0.00000  Uiso   1.00
C251   C     0.96408   0.32745   0.42674   0.00000  Uiso   1.00
C252   C     0.88974   0.33842   0.42761   0.00000  Uiso   1.00
C253   C     0.86232   0.44542   0.42679   0.00000  Uiso   1.00
H254   H     0.12428   0.46093   0.42310   0.00000  Uiso   1.00
H255   H     0.18621   0.40888   0.51958   0.00000  Uiso   1.00
H256   H     0.18208   0.40112   0.32619   0.00000  Uiso   1.00
H257   H     0.01725   0.59869   0.42303   0.00000  Uiso   1.00
H258   H     0.23487   0.31031   0.62725   0.00000  Uiso   1.00
H259   H     0.22617   0.29396   0.21948   0.00000  Uiso   1.00
H260   H     0.87859   0.71059   0.42367   0.00000  Uiso   1.00
H261   H     0.97013   0.14625   0.42863   0.00000  Uiso   1.00
H262   H     0.02360   0.07693   0.52542   0.00000  Uiso   1.00
H263   H     0.01948   0.06916   0.33203   0.00000  Uiso   1.00
H264   H     0.85465   0.26674   0.42887   0.00000  Uiso   1.00
H265   H     0.10290   0.04088   0.63199   0.00000  Uiso   1.00
H266   H     0.09419   0.02453   0.22422   0.00000  Uiso   1.00
H267   H     0.74661   0.44116   0.42841   0.00000  Uiso   1.00
O268   O     0.20685   0.13565   0.69318   0.00000  Uiso   1.00
O269   O     0.19542   0.11422   0.15820   0.00000  Uiso   1.00
O270   O     0.73941   0.66083   0.42609   0.00000  Uiso   1.00
N271   N     0.19646   0.25642   0.61509   0.00000  Uiso   1.00
N272   N     0.18833   0.24113   0.23385   0.00000  Uiso   1.00
N273   N     0.86338   0.63065   0.42474   0.00000  Uiso   1.00
N274   N     0.12545   0.11145   0.61764   0.00000  Uiso   1.00
N275   N     0.11732   0.09615   0.23641   0.00000  Uiso   1.00
N276   N     0.79236   0.48567   0.42729   0.00000  Uiso   1.00
C277   C     0.41103   0.11116   0.92437   0.00000  Uiso   1.00
C278   C     0.39877   0.18307   0.97756   0.00000  Uiso   1.00
C279   C     0.34889   0.16279   0.02085   0.00000  Uiso   1.00
C280   C     0.34598   0.23848   0.06589   0.00000  Uiso   1.00
C281   C     0.32001   0.33609   0.14822   0.00000  Uiso   1.00
C282   C     0.40100   0.18730   0.87249   0.00000  Uiso   1.00
C283   C     0.35301   0.17056   0.82744   0.00000  Uiso   1.00
C284   C     0.35198   0.24981   0.78404   0.00000  Uiso   1.00
C285   C     0.32951   0.35393   0.70322   0.00000  Uiso   1.00
C286   C     0.49056   0.07995   0.92511   0.00000  Uiso   1.00
C287   C     0.51787   0.97295   0.92429   0.00000  Uiso   1.00
C288   C     0.59224   0.96181   0.92516   0.00000  Uiso   1.00
C289   C     0.70882   0.89926   0.92605   0.00000  Uiso   1.00
C290   C     0.49455   0.28165   0.92736   0.00000  Uiso   1.00
C291   C     0.44413   0.27568   0.97918   0.00000  Uiso   1.00
C292   C     0.44129   0.35142   0.02417   0.00000  Uiso   1.00
C293   C     0.39142   0.33125   0.06753   0.00000  Uiso   1.00
C294   C     0.44636   0.27990   0.87412   0.00000  Uiso   1.00
C295   C     0.44541   0.35919   0.83076   0.00000  Uiso   1.00
C296   C     0.39742   0.34258   0.78566   0.00000  Uiso   1.00
C297   C     0.53592   0.17255   0.92674   0.00000  Uiso   1.00
C298   C     0.61026   0.16158   0.92761   0.00000  Uiso   1.00
C299   C     0.63768   0.05458   0.92679   0.00000  Uiso   1.00
H300   H     0.37572   0.03907   0.92310   0.00000  Uiso   1.00
H301   H     0.31379   0.09112   0.01958   0.00000  Uiso   1.00
H302   H     0.31792   0.09888   0.82619   0.00000  Uiso   1.00
H303   H     0.48275   0.90131   0.92303   0.00000  Uiso   1.00
H304   H     0.26513   0.18969   0.12725   0.00000  Uiso   1.00
H305   H     0.27383   0.20604   0.71948   0.00000  Uiso   1.00
H306   H     0.62141   0.78941   0.92367   0.00000  Uiso   1.00
H307   H     0.52987   0.35375   0.92863   0.00000  Uiso   1.00
H308   H     0.47640   0.42307   0.02542   0.00000  Uiso   1.00
H309   H     0.48052   0.43084   0.83203   0.00000  Uiso   1.00
H310   H     0.64535   0.23326   0.92887   0.00000  Uiso   1.00
H311   H     0.39710   0.45912   0.13199   0.00000  Uiso   1.00
H312   H     0.40581   0.47547   0.72422   0.00000  Uiso   1.00
H313   H     0.75339   0.05884   0.92841   0.00000  Uiso   1.00
O314   O     0.29315   0.36435   0.19318   0.00000  Uiso   1.00
O315   O     0.30458   0.38578   0.65820   0.00000  Uiso   1.00
O316   O     0.76059   0.83917   0.92609   0.00000  Uiso   1.00
N317   N     0.30354   0.24358   0.11509   0.00000  Uiso   1.00
N318   N     0.31167   0.25887   0.73385   0.00000  Uiso   1.00
N319   N     0.63662   0.86935   0.92474   0.00000  Uiso   1.00
N320   N     0.37455   0.38855   0.11764   0.00000  Uiso   1.00
N321   N     0.38268   0.40385   0.73641   0.00000  Uiso   1.00
N322   N     0.70764   0.01433   0.92729   0.00000  Uiso   1.00
C323   C     0.91103   0.61116   0.92437   0.00000  Uiso   1.00
C324   C     0.89877   0.68307   0.97756   0.00000  Uiso   1.00
C325   C     0.84889   0.66279   0.02085   0.00000  Uiso   1.00
C326   C     0.84598   0.73848   0.06589   0.00000  Uiso   1.00
C327   C     0.82001   0.83609   0.14822   0.00000  Uiso   1.00
C328   C     0.90100   0.68730   0.87249   0.00000  Uiso   1.00
C329   C     0.85301   0.67056   0.82744   0.00000  Uiso   1.00
C330   C     0.85198   0.74981   0.78404   0.00000  Uiso   1.00
C331   C     0.82951   0.85393   0.70322   0.00000  Uiso   1.00
C332   C     0.99056   0.57995   0.92511   0.00000  Uiso   1.00
C333   C     0.01787   0.47295   0.92429   0.00000  Uiso   1.00
C334   C     0.09224   0.46181   0.92516   0.00000  Uiso   1.00
C335   C     0.20882   0.39926   0.92605   0.00000  Uiso   1.00
C336   C     0.99455   0.78165   0.92736   0.00000  Uiso   1.00
C337   C     0.94413   0.77568   0.97918   0.00000  Uiso   1.00
C338   C     0.94129   0.85142   0.02417   0.00000  Uiso   1.00
C339   C     0.89142   0.83125   0.06753   0.00000  Uiso   1.00
C340   C     0.94636   0.77990   0.87412   0.00000  Uiso   1.00
C341   C     0.94541   0.85919   0.83076   0.00000  Uiso   1.00
C342   C     0.89742   0.84258   0.78566   0.00000  Uiso   1.00
C343   C     0.03592   0.67255   0.92674   0.00000  Uiso   1.00
C344   C     0.11026   0.66158   0.92761   0.00000  Uiso   1.00
C345   C     0.13768   0.55458   0.92679   0.00000  Uiso   1.00
H346   H     0.87572   0.53907   0.92310   0.00000  Uiso   1.00
H347   H     0.81379   0.59112   0.01958   0.00000  Uiso   1.00
H348   H     0.81792   0.59888   0.82619   0.00000  Uiso   1.00
H349   H     0.98275   0.40131   0.92303   0.00000  Uiso   1.00
H350   H     0.76513   0.68969   0.12725   0.00000  Uiso   1.00
H351   H     0.77383   0.70604   0.71948   0.00000  Uiso   1.00
H352   H     0.12141   0.28941   0.92367   0.00000  Uiso   1.00
H353   H     0.02987   0.85375   0.92863   0.00000  Uiso   1.00
H354   H     0.97640   0.92307   0.02542   0.00000  Uiso   1.00
H355   H     0.98052   0.93084   0.83203   0.00000  Uiso   1.00
H356   H     0.14535   0.73326   0.92887   0.00000  Uiso   1.00
H357   H     0.89710   0.95912   0.13199   0.00000  Uiso   1.00
H358   H     0.90581   0.97547   0.72422   0.00000  Uiso   1.00
H359   H     0.25339   0.55884   0.92841   0.00000  Uiso   1.00
O360   O     0.79315   0.86435   0.19318   0.00000  Uiso   1.00
O361   O     0.80458   0.88578   0.65820   0.00000  Uiso   1.00
O362   O     0.26059   0.33917   0.92609   0.00000  Uiso   1.00
N363   N     0.80354   0.74358   0.11509   0.00000  Uiso   1.00
N364   N     0.81167   0.75887   0.73385   0.00000  Uiso   1.00
N365   N     0.13662   0.36935   0.92474   0.00000  Uiso   1.00
N366   N     0.87455   0.88855   0.11764   0.00000  Uiso   1.00
N367   N     0.88268   0.90385   0.73641   0.00000  Uiso   1.00
N368   N     0.20764   0.51433   0.92729   0.00000  Uiso   1.00
