data_job_01884
_audit_creation_date              2018-12-19
_audit_creation_method            'Materials Studio'
_symmetry_space_group_name_H-M    'P1'
_symmetry_Int_Tables_number       1
_symmetry_cell_setting            triclinic
loop_
_symmetry_equiv_pos_as_xyz
  x,y,z
_cell_length_a                    12.5388
_cell_length_b                    12.6300
_cell_length_c                    17.2411
_cell_angle_alpha                 109.9609
_cell_angle_beta                  93.1501
_cell_angle_gamma                 114.7870
loop_
_atom_site_label
_atom_site_type_symbol
_atom_site_fract_x
_atom_site_fract_y
_atom_site_fract_z
_atom_site_U_iso_or_equiv
_atom_site_adp_type
_atom_site_occupancy
C1     C     0.68809   0.10408   0.34899   0.00000  Uiso   1.00
C2     C     0.62195   0.97508   0.35420   0.00000  Uiso   1.00
C3     C     0.63303   0.95104   0.42619   0.00000  Uiso   1.00
C4     C     0.56485   0.82661   0.41791   0.00000  Uiso   1.00
C5     C     0.47382   0.64103   0.43779   0.00000  Uiso   1.00
C6     C     0.75547   0.08456   0.27872   0.00000  Uiso   1.00
C7     C     0.87881   0.15257   0.28725   0.00000  Uiso   1.00
C8     C     0.92303   0.12031   0.21541   0.00000  Uiso   1.00
C9     C     0.03928   0.10475   0.11808   0.00000  Uiso   1.00
C10    C     0.59040   0.13046   0.31623   0.00000  Uiso   1.00
C11    C     0.57497   0.23709   0.35627   0.00000  Uiso   1.00
C12    C     0.48023   0.24348   0.31600   0.00000  Uiso   1.00
C13    C     0.34019   0.29920   0.27691   0.00000  Uiso   1.00
C14    C     0.54732   0.92586   0.20625   0.00000  Uiso   1.00
C15    C     0.54548   0.87828   0.27667   0.00000  Uiso   1.00
C16    C     0.47727   0.75386   0.26827   0.00000  Uiso   1.00
C17    C     0.48825   0.72963   0.34024   0.00000  Uiso   1.00
C18    C     0.67901   0.98776   0.20119   0.00000  Uiso   1.00
C19    C     0.72305   0.95540   0.12932   0.00000  Uiso   1.00
C20    C     0.84643   0.02333   0.13774   0.00000  Uiso   1.00
C21    C     0.51393   0.03366   0.23870   0.00000  Uiso   1.00
C22    C     0.41921   0.03990   0.19835   0.00000  Uiso   1.00
C23    C     0.40363   0.14651   0.23833   0.00000  Uiso   1.00
H24    H     0.74763   0.17944   0.40935   0.00000  Uiso   1.00
H25    H     0.69222   0.02597   0.48618   0.00000  Uiso   1.00
H26    H     0.93796   0.22748   0.34725   0.00000  Uiso   1.00
H27    H     0.63416   0.31197   0.41627   0.00000  Uiso   1.00
H28    H     0.59710   0.81313   0.53717   0.00000  Uiso   1.00
H29    H     0.11524   0.23805   0.24422   0.00000  Uiso   1.00
H30    H     0.47464   0.41623   0.38976   0.00000  Uiso   1.00
H31    H     0.48778   0.85050   0.14589   0.00000  Uiso   1.00
H32    H     0.41811   0.67897   0.20827   0.00000  Uiso   1.00
H33    H     0.66385   0.88048   0.06934   0.00000  Uiso   1.00
H34    H     0.36006   0.96497   0.13836   0.00000  Uiso   1.00
H35    H     0.37462   0.53148   0.31160   0.00000  Uiso   1.00
H36    H     0.89277   0.95642   0.01865   0.00000  Uiso   1.00
H37    H     0.25216   0.13458   0.16419   0.00000  Uiso   1.00
O38    O     0.44475   0.56540   0.47016   0.00000  Uiso   1.00
O39    O     0.12453   0.12291   0.08582   0.00000  Uiso   1.00
O40    O     0.28406   0.35666   0.27677   0.00000  Uiso   1.00
N41    N     0.55428   0.77039   0.47552   0.00000  Uiso   1.00
N42    N     0.03872   0.16765   0.20164   0.00000  Uiso   1.00
N43    N     0.43983   0.33425   0.33769   0.00000  Uiso   1.00
N44    N     0.43457   0.61884   0.35415   0.00000  Uiso   1.00
N45    N     0.91901   0.01611   0.08026   0.00000  Uiso   1.00
N46    N     0.32011   0.18270   0.21632   0.00000  Uiso   1.00
C47    C     0.31191   0.89592   0.65101   0.00000  Uiso   1.00
C48    C     0.37805   0.02492   0.64580   0.00000  Uiso   1.00
C49    C     0.36697   0.04896   0.57381   0.00000  Uiso   1.00
C50    C     0.43515   0.17339   0.58209   0.00000  Uiso   1.00
C51    C     0.52618   0.35897   0.56221   0.00000  Uiso   1.00
C52    C     0.24453   0.91544   0.72128   0.00000  Uiso   1.00
C53    C     0.12119   0.84743   0.71275   0.00000  Uiso   1.00
C54    C     0.07697   0.87969   0.78459   0.00000  Uiso   1.00
C55    C     0.96072   0.89525   0.88192   0.00000  Uiso   1.00
C56    C     0.40960   0.86954   0.68377   0.00000  Uiso   1.00
C57    C     0.42503   0.76291   0.64373   0.00000  Uiso   1.00
C58    C     0.51977   0.75652   0.68400   0.00000  Uiso   1.00
C59    C     0.65981   0.70080   0.72309   0.00000  Uiso   1.00
C60    C     0.45268   0.07414   0.79375   0.00000  Uiso   1.00
C61    C     0.45452   0.12172   0.72333   0.00000  Uiso   1.00
C62    C     0.52273   0.24614   0.73173   0.00000  Uiso   1.00
C63    C     0.51175   0.27037   0.65976   0.00000  Uiso   1.00
C64    C     0.32099   0.01224   0.79881   0.00000  Uiso   1.00
C65    C     0.27695   0.04460   0.87068   0.00000  Uiso   1.00
C66    C     0.15357   0.97667   0.86226   0.00000  Uiso   1.00
C67    C     0.48607   0.96634   0.76130   0.00000  Uiso   1.00
C68    C     0.58079   0.96010   0.80165   0.00000  Uiso   1.00
C69    C     0.59637   0.85349   0.76167   0.00000  Uiso   1.00
H70    H     0.25237   0.82056   0.59065   0.00000  Uiso   1.00
H71    H     0.30778   0.97403   0.51382   0.00000  Uiso   1.00
H72    H     0.06204   0.77252   0.65275   0.00000  Uiso   1.00
H73    H     0.36584   0.68803   0.58373   0.00000  Uiso   1.00
H74    H     0.40290   0.18687   0.46283   0.00000  Uiso   1.00
H75    H     0.88476   0.76195   0.75578   0.00000  Uiso   1.00
H76    H     0.52536   0.58377   0.61024   0.00000  Uiso   1.00
H77    H     0.51222   0.14950   0.85411   0.00000  Uiso   1.00
H78    H     0.58189   0.32103   0.79173   0.00000  Uiso   1.00
H79    H     0.33615   0.11952   0.93066   0.00000  Uiso   1.00
H80    H     0.63994   0.03503   0.86164   0.00000  Uiso   1.00
H81    H     0.62538   0.46852   0.68840   0.00000  Uiso   1.00
H82    H     0.10723   0.04358   0.98135   0.00000  Uiso   1.00
H83    H     0.74784   0.86542   0.83581   0.00000  Uiso   1.00
O84    O     0.55525   0.43460   0.52984   0.00000  Uiso   1.00
O85    O     0.87547   0.87709   0.91418   0.00000  Uiso   1.00
O86    O     0.71594   0.64334   0.72323   0.00000  Uiso   1.00
N87    N     0.44572   0.22961   0.52448   0.00000  Uiso   1.00
N88    N     0.96128   0.83235   0.79836   0.00000  Uiso   1.00
N89    N     0.56017   0.66575   0.66231   0.00000  Uiso   1.00
N90    N     0.56543   0.38116   0.64585   0.00000  Uiso   1.00
N91    N     0.08099   0.98389   0.91974   0.00000  Uiso   1.00
N92    N     0.67989   0.81730   0.78368   0.00000  Uiso   1.00
