data_job_01692
_audit_creation_date              2018-12-19
_audit_creation_method            'Materials Studio'
_symmetry_space_group_name_H-M    'P1'
_symmetry_Int_Tables_number       1
_symmetry_cell_setting            triclinic
loop_
_symmetry_equiv_pos_as_xyz
  x,y,z
_cell_length_a                    23.8775
_cell_length_b                    34.6591
_cell_length_c                    7.4788
_cell_angle_alpha                 90.0000
_cell_angle_beta                  90.0000
_cell_angle_gamma                 90.0000
loop_
_atom_site_label
_atom_site_type_symbol
_atom_site_fract_x
_atom_site_fract_y
_atom_site_fract_z
_atom_site_U_iso_or_equiv
_atom_site_adp_type
_atom_site_occupancy
C1     C     0.64192   0.92480   0.57755   0.00000  Uiso   1.00
C2     C     0.61071   0.95922   0.65633   0.00000  Uiso   1.00
C3     C     0.58449   0.98817   0.55928   0.00000  Uiso   1.00
C4     C     0.55822   0.01715   0.65621   0.00000  Uiso   1.00
C5     C     0.50979   0.07060   0.75006   0.00000  Uiso   1.00
C6     C     0.70079   0.92621   0.65633   0.00000  Uiso   1.00
C7     C     0.75030   0.92740   0.55926   0.00000  Uiso   1.00
C8     C     0.79986   0.92858   0.65621   0.00000  Uiso   1.00
C9     C     0.89128   0.93075   0.75004   0.00000  Uiso   1.00
C10    C     0.61426   0.88897   0.65624   0.00000  Uiso   1.00
C11    C     0.59102   0.85884   0.55910   0.00000  Uiso   1.00
C12    C     0.56774   0.82866   0.65597   0.00000  Uiso   1.00
C13    C     0.52479   0.77302   0.74967   0.00000  Uiso   1.00
C14    C     0.64191   0.92478   0.92229   0.00000  Uiso   1.00
C15    C     0.61071   0.95921   0.84358   0.00000  Uiso   1.00
C16    C     0.58447   0.98815   0.94070   0.00000  Uiso   1.00
C17    C     0.55821   0.01714   0.84380   0.00000  Uiso   1.00
C18    C     0.70079   0.92620   0.84357   0.00000  Uiso   1.00
C19    C     0.75029   0.92737   0.94068   0.00000  Uiso   1.00
C20    C     0.79986   0.92856   0.84379   0.00000  Uiso   1.00
C21    C     0.61425   0.88896   0.84349   0.00000  Uiso   1.00
C22    C     0.59100   0.85882   0.94053   0.00000  Uiso   1.00
C23    C     0.56773   0.82865   0.84356   0.00000  Uiso   1.00
H24    H     0.64193   0.92481   0.43177   0.00000  Uiso   1.00
H25    H     0.58451   0.98817   0.41436   0.00000  Uiso   1.00
H26    H     0.75029   0.92740   0.41436   0.00000  Uiso   1.00
H27    H     0.59103   0.85886   0.41420   0.00000  Uiso   1.00
H28    H     0.52085   0.05842   0.47765   0.00000  Uiso   1.00
H29    H     0.87043   0.93027   0.47763   0.00000  Uiso   1.00
H30    H     0.53460   0.78573   0.47730   0.00000  Uiso   1.00
H31    H     0.64191   0.92477   0.06808   0.00000  Uiso   1.00
H32    H     0.58448   0.98813   0.08560   0.00000  Uiso   1.00
H33    H     0.75027   0.92736   0.08559   0.00000  Uiso   1.00
H34    H     0.59101   0.85882   0.08543   0.00000  Uiso   1.00
H35    H     0.52083   0.05839   0.02245   0.00000  Uiso   1.00
H36    H     0.87041   0.93023   0.02243   0.00000  Uiso   1.00
H37    H     0.53457   0.78570   0.02210   0.00000  Uiso   1.00
O38    O     0.48308   0.10009   0.75009   0.00000  Uiso   1.00
O39    O     0.94171   0.93195   0.75006   0.00000  Uiso   1.00
O40    O     0.50110   0.74233   0.74963   0.00000  Uiso   1.00
N41    N     0.52872   0.04972   0.60347   0.00000  Uiso   1.00
N42    N     0.85555   0.92991   0.60345   0.00000  Uiso   1.00
N43    N     0.54159   0.79477   0.60313   0.00000  Uiso   1.00
N44    N     0.52871   0.04970   0.89662   0.00000  Uiso   1.00
N45    N     0.85554   0.92989   0.89660   0.00000  Uiso   1.00
N46    N     0.54158   0.79475   0.89629   0.00000  Uiso   1.00
C47    C     0.85808   0.07520   0.07755   0.00000  Uiso   1.00
C48    C     0.88929   0.04078   0.15633   0.00000  Uiso   1.00
C49    C     0.91551   0.01183   0.05928   0.00000  Uiso   1.00
C50    C     0.94178   0.98285   0.15621   0.00000  Uiso   1.00
C51    C     0.99021   0.92940   0.25006   0.00000  Uiso   1.00
C52    C     0.79921   0.07379   0.15633   0.00000  Uiso   1.00
C53    C     0.74970   0.07260   0.05926   0.00000  Uiso   1.00
C54    C     0.70014   0.07142   0.15621   0.00000  Uiso   1.00
C55    C     0.60872   0.06925   0.25004   0.00000  Uiso   1.00
C56    C     0.88574   0.11103   0.15624   0.00000  Uiso   1.00
C57    C     0.90898   0.14116   0.05910   0.00000  Uiso   1.00
C58    C     0.93226   0.17134   0.15597   0.00000  Uiso   1.00
C59    C     0.97521   0.22698   0.24967   0.00000  Uiso   1.00
C60    C     0.85809   0.07522   0.42229   0.00000  Uiso   1.00
C61    C     0.88929   0.04079   0.34358   0.00000  Uiso   1.00
C62    C     0.91553   0.01185   0.44070   0.00000  Uiso   1.00
C63    C     0.94179   0.98286   0.34380   0.00000  Uiso   1.00
C64    C     0.79921   0.07380   0.34357   0.00000  Uiso   1.00
C65    C     0.74971   0.07263   0.44068   0.00000  Uiso   1.00
C66    C     0.70014   0.07144   0.34379   0.00000  Uiso   1.00
C67    C     0.88575   0.11104   0.34349   0.00000  Uiso   1.00
C68    C     0.90900   0.14118   0.44053   0.00000  Uiso   1.00
C69    C     0.93227   0.17135   0.34356   0.00000  Uiso   1.00
H70    H     0.85807   0.07519   0.93177   0.00000  Uiso   1.00
H71    H     0.91549   0.01183   0.91436   0.00000  Uiso   1.00
H72    H     0.74971   0.07260   0.91436   0.00000  Uiso   1.00
H73    H     0.90897   0.14114   0.91420   0.00000  Uiso   1.00
H74    H     0.97915   0.94158   0.97765   0.00000  Uiso   1.00
H75    H     0.62957   0.06973   0.97763   0.00000  Uiso   1.00
H76    H     0.96540   0.21427   0.97730   0.00000  Uiso   1.00
H77    H     0.85809   0.07523   0.56808   0.00000  Uiso   1.00
H78    H     0.91552   0.01187   0.58560   0.00000  Uiso   1.00
H79    H     0.74973   0.07264   0.58559   0.00000  Uiso   1.00
H80    H     0.90899   0.14118   0.58543   0.00000  Uiso   1.00
H81    H     0.97917   0.94161   0.52245   0.00000  Uiso   1.00
H82    H     0.62959   0.06977   0.52243   0.00000  Uiso   1.00
H83    H     0.96543   0.21430   0.52210   0.00000  Uiso   1.00
O84    O     0.01692   0.89991   0.25009   0.00000  Uiso   1.00
O85    O     0.55829   0.06805   0.25006   0.00000  Uiso   1.00
O86    O     0.99890   0.25767   0.24963   0.00000  Uiso   1.00
N87    N     0.97128   0.95028   0.10347   0.00000  Uiso   1.00
N88    N     0.64445   0.07009   0.10345   0.00000  Uiso   1.00
N89    N     0.95841   0.20523   0.10313   0.00000  Uiso   1.00
N90    N     0.97129   0.95030   0.39662   0.00000  Uiso   1.00
N91    N     0.64446   0.07011   0.39660   0.00000  Uiso   1.00
N92    N     0.95842   0.20525   0.39629   0.00000  Uiso   1.00
C93    C     0.35808   0.42480   0.92245   0.00000  Uiso   1.00
C94    C     0.38929   0.45922   0.84367   0.00000  Uiso   1.00
C95    C     0.41551   0.48817   0.94072   0.00000  Uiso   1.00
C96    C     0.44178   0.51715   0.84379   0.00000  Uiso   1.00
C97    C     0.49021   0.57060   0.74994   0.00000  Uiso   1.00
C98    C     0.29921   0.42621   0.84367   0.00000  Uiso   1.00
C99    C     0.24970   0.42740   0.94074   0.00000  Uiso   1.00
C100   C     0.20014   0.42858   0.84379   0.00000  Uiso   1.00
C101   C     0.10872   0.43075   0.74996   0.00000  Uiso   1.00
C102   C     0.38574   0.38897   0.84376   0.00000  Uiso   1.00
C103   C     0.40898   0.35884   0.94090   0.00000  Uiso   1.00
C104   C     0.43226   0.32866   0.84403   0.00000  Uiso   1.00
C105   C     0.47521   0.27302   0.75033   0.00000  Uiso   1.00
C106   C     0.35809   0.42478   0.57771   0.00000  Uiso   1.00
C107   C     0.38929   0.45921   0.65642   0.00000  Uiso   1.00
C108   C     0.41553   0.48815   0.55930   0.00000  Uiso   1.00
C109   C     0.44179   0.51714   0.65620   0.00000  Uiso   1.00
C110   C     0.29921   0.42620   0.65643   0.00000  Uiso   1.00
C111   C     0.24971   0.42737   0.55932   0.00000  Uiso   1.00
C112   C     0.20014   0.42856   0.65621   0.00000  Uiso   1.00
C113   C     0.38575   0.38896   0.65651   0.00000  Uiso   1.00
C114   C     0.40900   0.35882   0.55947   0.00000  Uiso   1.00
C115   C     0.43227   0.32865   0.65644   0.00000  Uiso   1.00
H116   H     0.35807   0.42481   0.06823   0.00000  Uiso   1.00
H117   H     0.41549   0.48817   0.08564   0.00000  Uiso   1.00
H118   H     0.24971   0.42740   0.08564   0.00000  Uiso   1.00
H119   H     0.40897   0.35886   0.08580   0.00000  Uiso   1.00
H120   H     0.47915   0.55842   0.02235   0.00000  Uiso   1.00
H121   H     0.12957   0.43027   0.02237   0.00000  Uiso   1.00
H122   H     0.46540   0.28573   0.02270   0.00000  Uiso   1.00
H123   H     0.35809   0.42477   0.43192   0.00000  Uiso   1.00
H124   H     0.41552   0.48813   0.41440   0.00000  Uiso   1.00
H125   H     0.24973   0.42736   0.41441   0.00000  Uiso   1.00
H126   H     0.40899   0.35882   0.41457   0.00000  Uiso   1.00
H127   H     0.47917   0.55839   0.47755   0.00000  Uiso   1.00
H128   H     0.12959   0.43023   0.47757   0.00000  Uiso   1.00
H129   H     0.46543   0.28570   0.47790   0.00000  Uiso   1.00
O130   O     0.51692   0.60009   0.74991   0.00000  Uiso   1.00
O131   O     0.05829   0.43195   0.74994   0.00000  Uiso   1.00
O132   O     0.49890   0.24233   0.75037   0.00000  Uiso   1.00
N133   N     0.47128   0.54972   0.89653   0.00000  Uiso   1.00
N134   N     0.14445   0.42991   0.89655   0.00000  Uiso   1.00
N135   N     0.45841   0.29477   0.89687   0.00000  Uiso   1.00
N136   N     0.47129   0.54970   0.60338   0.00000  Uiso   1.00
N137   N     0.14446   0.42989   0.60340   0.00000  Uiso   1.00
N138   N     0.45842   0.29475   0.60371   0.00000  Uiso   1.00
C139   C     0.14192   0.57520   0.42245   0.00000  Uiso   1.00
C140   C     0.11071   0.54078   0.34367   0.00000  Uiso   1.00
C141   C     0.08449   0.51183   0.44072   0.00000  Uiso   1.00
C142   C     0.05822   0.48285   0.34379   0.00000  Uiso   1.00
C143   C     0.00979   0.42940   0.24994   0.00000  Uiso   1.00
C144   C     0.20079   0.57379   0.34367   0.00000  Uiso   1.00
C145   C     0.25030   0.57260   0.44074   0.00000  Uiso   1.00
C146   C     0.29986   0.57142   0.34379   0.00000  Uiso   1.00
C147   C     0.39128   0.56925   0.24996   0.00000  Uiso   1.00
C148   C     0.11426   0.61103   0.34376   0.00000  Uiso   1.00
C149   C     0.09102   0.64116   0.44090   0.00000  Uiso   1.00
C150   C     0.06774   0.67134   0.34403   0.00000  Uiso   1.00
C151   C     0.02479   0.72698   0.25033   0.00000  Uiso   1.00
C152   C     0.14191   0.57522   0.07771   0.00000  Uiso   1.00
C153   C     0.11071   0.54079   0.15642   0.00000  Uiso   1.00
C154   C     0.08447   0.51185   0.05930   0.00000  Uiso   1.00
C155   C     0.05821   0.48286   0.15620   0.00000  Uiso   1.00
C156   C     0.20079   0.57380   0.15643   0.00000  Uiso   1.00
C157   C     0.25029   0.57263   0.05932   0.00000  Uiso   1.00
C158   C     0.29986   0.57144   0.15621   0.00000  Uiso   1.00
C159   C     0.11425   0.61104   0.15651   0.00000  Uiso   1.00
C160   C     0.09100   0.64118   0.05947   0.00000  Uiso   1.00
C161   C     0.06773   0.67135   0.15644   0.00000  Uiso   1.00
H162   H     0.14193   0.57519   0.56823   0.00000  Uiso   1.00
H163   H     0.08451   0.51183   0.58564   0.00000  Uiso   1.00
H164   H     0.25029   0.57260   0.58564   0.00000  Uiso   1.00
H165   H     0.09103   0.64114   0.58580   0.00000  Uiso   1.00
H166   H     0.02085   0.44158   0.52235   0.00000  Uiso   1.00
H167   H     0.37043   0.56973   0.52237   0.00000  Uiso   1.00
H168   H     0.03460   0.71427   0.52270   0.00000  Uiso   1.00
H169   H     0.14191   0.57523   0.93192   0.00000  Uiso   1.00
H170   H     0.08448   0.51187   0.91440   0.00000  Uiso   1.00
H171   H     0.25027   0.57264   0.91441   0.00000  Uiso   1.00
H172   H     0.09101   0.64118   0.91457   0.00000  Uiso   1.00
H173   H     0.02083   0.44161   0.97755   0.00000  Uiso   1.00
H174   H     0.37041   0.56977   0.97757   0.00000  Uiso   1.00
H175   H     0.03457   0.71430   0.97790   0.00000  Uiso   1.00
O176   O     0.98308   0.39991   0.24991   0.00000  Uiso   1.00
O177   O     0.44171   0.56805   0.24994   0.00000  Uiso   1.00
O178   O     0.00110   0.75767   0.25037   0.00000  Uiso   1.00
N179   N     0.02872   0.45028   0.39653   0.00000  Uiso   1.00
N180   N     0.35555   0.57009   0.39655   0.00000  Uiso   1.00
N181   N     0.04159   0.70523   0.39687   0.00000  Uiso   1.00
N182   N     0.02871   0.45030   0.10338   0.00000  Uiso   1.00
N183   N     0.35554   0.57011   0.10340   0.00000  Uiso   1.00
N184   N     0.04158   0.70525   0.10371   0.00000  Uiso   1.00
C185   C     0.35808   0.07520   0.42245   0.00000  Uiso   1.00
C186   C     0.38929   0.04078   0.34367   0.00000  Uiso   1.00
C187   C     0.41551   0.01183   0.44072   0.00000  Uiso   1.00
C188   C     0.44178   0.98285   0.34379   0.00000  Uiso   1.00
C189   C     0.49021   0.92940   0.24994   0.00000  Uiso   1.00
C190   C     0.29921   0.07379   0.34367   0.00000  Uiso   1.00
C191   C     0.24970   0.07260   0.44074   0.00000  Uiso   1.00
C192   C     0.20014   0.07142   0.34379   0.00000  Uiso   1.00
C193   C     0.10872   0.06925   0.24996   0.00000  Uiso   1.00
C194   C     0.38574   0.11103   0.34376   0.00000  Uiso   1.00
C195   C     0.40898   0.14116   0.44090   0.00000  Uiso   1.00
C196   C     0.43226   0.17134   0.34403   0.00000  Uiso   1.00
C197   C     0.47521   0.22698   0.25033   0.00000  Uiso   1.00
C198   C     0.35809   0.07522   0.07771   0.00000  Uiso   1.00
C199   C     0.38929   0.04079   0.15642   0.00000  Uiso   1.00
C200   C     0.41553   0.01185   0.05930   0.00000  Uiso   1.00
C201   C     0.44179   0.98286   0.15620   0.00000  Uiso   1.00
C202   C     0.29921   0.07380   0.15643   0.00000  Uiso   1.00
C203   C     0.24971   0.07263   0.05932   0.00000  Uiso   1.00
C204   C     0.20014   0.07144   0.15621   0.00000  Uiso   1.00
C205   C     0.38575   0.11104   0.15651   0.00000  Uiso   1.00
C206   C     0.40900   0.14118   0.05947   0.00000  Uiso   1.00
C207   C     0.43227   0.17135   0.15644   0.00000  Uiso   1.00
H208   H     0.35807   0.07519   0.56823   0.00000  Uiso   1.00
H209   H     0.41549   0.01183   0.58564   0.00000  Uiso   1.00
H210   H     0.24971   0.07260   0.58564   0.00000  Uiso   1.00
H211   H     0.40897   0.14114   0.58580   0.00000  Uiso   1.00
H212   H     0.47915   0.94158   0.52235   0.00000  Uiso   1.00
H213   H     0.12957   0.06973   0.52237   0.00000  Uiso   1.00
H214   H     0.46540   0.21427   0.52270   0.00000  Uiso   1.00
H215   H     0.35809   0.07523   0.93192   0.00000  Uiso   1.00
H216   H     0.41552   0.01187   0.91440   0.00000  Uiso   1.00
H217   H     0.24973   0.07264   0.91441   0.00000  Uiso   1.00
H218   H     0.40899   0.14118   0.91457   0.00000  Uiso   1.00
H219   H     0.47917   0.94161   0.97755   0.00000  Uiso   1.00
H220   H     0.12959   0.06977   0.97757   0.00000  Uiso   1.00
H221   H     0.46543   0.21430   0.97790   0.00000  Uiso   1.00
O222   O     0.51692   0.89991   0.24991   0.00000  Uiso   1.00
O223   O     0.05829   0.06805   0.24994   0.00000  Uiso   1.00
O224   O     0.49890   0.25767   0.25037   0.00000  Uiso   1.00
N225   N     0.47128   0.95028   0.39653   0.00000  Uiso   1.00
N226   N     0.14445   0.07009   0.39655   0.00000  Uiso   1.00
N227   N     0.45841   0.20523   0.39687   0.00000  Uiso   1.00
N228   N     0.47129   0.95030   0.10338   0.00000  Uiso   1.00
N229   N     0.14446   0.07011   0.10340   0.00000  Uiso   1.00
N230   N     0.45842   0.20525   0.10371   0.00000  Uiso   1.00
C231   C     0.14192   0.92480   0.92245   0.00000  Uiso   1.00
C232   C     0.11071   0.95922   0.84367   0.00000  Uiso   1.00
C233   C     0.08449   0.98817   0.94072   0.00000  Uiso   1.00
C234   C     0.05822   0.01715   0.84379   0.00000  Uiso   1.00
C235   C     0.00979   0.07060   0.74994   0.00000  Uiso   1.00
C236   C     0.20079   0.92621   0.84367   0.00000  Uiso   1.00
C237   C     0.25030   0.92740   0.94074   0.00000  Uiso   1.00
C238   C     0.29986   0.92858   0.84379   0.00000  Uiso   1.00
C239   C     0.39128   0.93075   0.74996   0.00000  Uiso   1.00
C240   C     0.11426   0.88897   0.84376   0.00000  Uiso   1.00
C241   C     0.09102   0.85884   0.94090   0.00000  Uiso   1.00
C242   C     0.06774   0.82866   0.84403   0.00000  Uiso   1.00
C243   C     0.02479   0.77302   0.75033   0.00000  Uiso   1.00
C244   C     0.14191   0.92478   0.57771   0.00000  Uiso   1.00
C245   C     0.11071   0.95921   0.65642   0.00000  Uiso   1.00
C246   C     0.08447   0.98815   0.55930   0.00000  Uiso   1.00
C247   C     0.05821   0.01714   0.65620   0.00000  Uiso   1.00
C248   C     0.20079   0.92620   0.65643   0.00000  Uiso   1.00
C249   C     0.25029   0.92737   0.55932   0.00000  Uiso   1.00
C250   C     0.29986   0.92856   0.65621   0.00000  Uiso   1.00
C251   C     0.11425   0.88896   0.65651   0.00000  Uiso   1.00
C252   C     0.09100   0.85882   0.55947   0.00000  Uiso   1.00
C253   C     0.06773   0.82865   0.65644   0.00000  Uiso   1.00
H254   H     0.14193   0.92481   0.06823   0.00000  Uiso   1.00
H255   H     0.08451   0.98817   0.08564   0.00000  Uiso   1.00
H256   H     0.25029   0.92740   0.08564   0.00000  Uiso   1.00
H257   H     0.09103   0.85886   0.08580   0.00000  Uiso   1.00
H258   H     0.02085   0.05842   0.02235   0.00000  Uiso   1.00
H259   H     0.37043   0.93027   0.02237   0.00000  Uiso   1.00
H260   H     0.03460   0.78573   0.02270   0.00000  Uiso   1.00
H261   H     0.14191   0.92477   0.43192   0.00000  Uiso   1.00
H262   H     0.08448   0.98813   0.41440   0.00000  Uiso   1.00
H263   H     0.25027   0.92736   0.41441   0.00000  Uiso   1.00
H264   H     0.09101   0.85882   0.41457   0.00000  Uiso   1.00
H265   H     0.02083   0.05839   0.47755   0.00000  Uiso   1.00
H266   H     0.37041   0.93023   0.47757   0.00000  Uiso   1.00
H267   H     0.03457   0.78570   0.47790   0.00000  Uiso   1.00
O268   O     0.98308   0.10009   0.74991   0.00000  Uiso   1.00
O269   O     0.44171   0.93195   0.74994   0.00000  Uiso   1.00
O270   O     0.00110   0.74233   0.75037   0.00000  Uiso   1.00
N271   N     0.02872   0.04972   0.89653   0.00000  Uiso   1.00
N272   N     0.35555   0.92991   0.89655   0.00000  Uiso   1.00
N273   N     0.04159   0.79477   0.89687   0.00000  Uiso   1.00
N274   N     0.02871   0.04970   0.60338   0.00000  Uiso   1.00
N275   N     0.35554   0.92989   0.60340   0.00000  Uiso   1.00
N276   N     0.04158   0.79475   0.60371   0.00000  Uiso   1.00
C277   C     0.64192   0.57520   0.07755   0.00000  Uiso   1.00
C278   C     0.61071   0.54078   0.15633   0.00000  Uiso   1.00
C279   C     0.58449   0.51183   0.05928   0.00000  Uiso   1.00
C280   C     0.55822   0.48285   0.15621   0.00000  Uiso   1.00
C281   C     0.50979   0.42940   0.25006   0.00000  Uiso   1.00
C282   C     0.70079   0.57379   0.15633   0.00000  Uiso   1.00
C283   C     0.75030   0.57260   0.05926   0.00000  Uiso   1.00
C284   C     0.79986   0.57142   0.15621   0.00000  Uiso   1.00
C285   C     0.89128   0.56925   0.25004   0.00000  Uiso   1.00
C286   C     0.61426   0.61103   0.15624   0.00000  Uiso   1.00
C287   C     0.59102   0.64116   0.05910   0.00000  Uiso   1.00
C288   C     0.56774   0.67134   0.15597   0.00000  Uiso   1.00
C289   C     0.52479   0.72698   0.24967   0.00000  Uiso   1.00
C290   C     0.64191   0.57522   0.42229   0.00000  Uiso   1.00
C291   C     0.61071   0.54079   0.34358   0.00000  Uiso   1.00
C292   C     0.58447   0.51185   0.44070   0.00000  Uiso   1.00
C293   C     0.55821   0.48286   0.34380   0.00000  Uiso   1.00
C294   C     0.70079   0.57380   0.34357   0.00000  Uiso   1.00
C295   C     0.75029   0.57263   0.44068   0.00000  Uiso   1.00
C296   C     0.79986   0.57144   0.34379   0.00000  Uiso   1.00
C297   C     0.61425   0.61104   0.34349   0.00000  Uiso   1.00
C298   C     0.59100   0.64118   0.44053   0.00000  Uiso   1.00
C299   C     0.56773   0.67135   0.34356   0.00000  Uiso   1.00
H300   H     0.64193   0.57519   0.93177   0.00000  Uiso   1.00
H301   H     0.58451   0.51183   0.91436   0.00000  Uiso   1.00
H302   H     0.75029   0.57260   0.91436   0.00000  Uiso   1.00
H303   H     0.59103   0.64114   0.91420   0.00000  Uiso   1.00
H304   H     0.52085   0.44158   0.97765   0.00000  Uiso   1.00
H305   H     0.87043   0.56973   0.97763   0.00000  Uiso   1.00
H306   H     0.53460   0.71427   0.97730   0.00000  Uiso   1.00
H307   H     0.64191   0.57523   0.56808   0.00000  Uiso   1.00
H308   H     0.58448   0.51187   0.58560   0.00000  Uiso   1.00
H309   H     0.75027   0.57264   0.58559   0.00000  Uiso   1.00
H310   H     0.59101   0.64118   0.58543   0.00000  Uiso   1.00
H311   H     0.52083   0.44161   0.52245   0.00000  Uiso   1.00
H312   H     0.87041   0.56977   0.52243   0.00000  Uiso   1.00
H313   H     0.53457   0.71430   0.52210   0.00000  Uiso   1.00
O314   O     0.48308   0.39991   0.25009   0.00000  Uiso   1.00
O315   O     0.94171   0.56805   0.25006   0.00000  Uiso   1.00
O316   O     0.50110   0.75767   0.24963   0.00000  Uiso   1.00
N317   N     0.52872   0.45028   0.10347   0.00000  Uiso   1.00
N318   N     0.85555   0.57009   0.10345   0.00000  Uiso   1.00
N319   N     0.54159   0.70523   0.10313   0.00000  Uiso   1.00
N320   N     0.52871   0.45030   0.39662   0.00000  Uiso   1.00
N321   N     0.85554   0.57011   0.39660   0.00000  Uiso   1.00
N322   N     0.54158   0.70525   0.39629   0.00000  Uiso   1.00
C323   C     0.85808   0.42480   0.57755   0.00000  Uiso   1.00
C324   C     0.88929   0.45922   0.65633   0.00000  Uiso   1.00
C325   C     0.91551   0.48817   0.55928   0.00000  Uiso   1.00
C326   C     0.94178   0.51715   0.65621   0.00000  Uiso   1.00
C327   C     0.99021   0.57060   0.75006   0.00000  Uiso   1.00
C328   C     0.79921   0.42621   0.65633   0.00000  Uiso   1.00
C329   C     0.74970   0.42740   0.55926   0.00000  Uiso   1.00
C330   C     0.70014   0.42858   0.65621   0.00000  Uiso   1.00
C331   C     0.60872   0.43075   0.75004   0.00000  Uiso   1.00
C332   C     0.88574   0.38897   0.65624   0.00000  Uiso   1.00
C333   C     0.90898   0.35884   0.55910   0.00000  Uiso   1.00
C334   C     0.93226   0.32866   0.65597   0.00000  Uiso   1.00
C335   C     0.97521   0.27302   0.74967   0.00000  Uiso   1.00
C336   C     0.85809   0.42478   0.92229   0.00000  Uiso   1.00
C337   C     0.88929   0.45921   0.84358   0.00000  Uiso   1.00
C338   C     0.91553   0.48815   0.94070   0.00000  Uiso   1.00
C339   C     0.94179   0.51714   0.84380   0.00000  Uiso   1.00
C340   C     0.79921   0.42620   0.84357   0.00000  Uiso   1.00
C341   C     0.74971   0.42737   0.94068   0.00000  Uiso   1.00
C342   C     0.70014   0.42856   0.84379   0.00000  Uiso   1.00
C343   C     0.88575   0.38896   0.84349   0.00000  Uiso   1.00
C344   C     0.90900   0.35882   0.94053   0.00000  Uiso   1.00
C345   C     0.93227   0.32865   0.84356   0.00000  Uiso   1.00
H346   H     0.85807   0.42481   0.43177   0.00000  Uiso   1.00
H347   H     0.91549   0.48817   0.41436   0.00000  Uiso   1.00
H348   H     0.74971   0.42740   0.41436   0.00000  Uiso   1.00
H349   H     0.90897   0.35886   0.41420   0.00000  Uiso   1.00
H350   H     0.97915   0.55842   0.47765   0.00000  Uiso   1.00
H351   H     0.62957   0.43027   0.47763   0.00000  Uiso   1.00
H352   H     0.96540   0.28573   0.47730   0.00000  Uiso   1.00
H353   H     0.85809   0.42477   0.06808   0.00000  Uiso   1.00
H354   H     0.91552   0.48813   0.08560   0.00000  Uiso   1.00
H355   H     0.74973   0.42736   0.08559   0.00000  Uiso   1.00
H356   H     0.90899   0.35882   0.08543   0.00000  Uiso   1.00
H357   H     0.97917   0.55839   0.02245   0.00000  Uiso   1.00
H358   H     0.62959   0.43023   0.02243   0.00000  Uiso   1.00
H359   H     0.96543   0.28570   0.02210   0.00000  Uiso   1.00
O360   O     0.01692   0.60009   0.75009   0.00000  Uiso   1.00
O361   O     0.55829   0.43195   0.75006   0.00000  Uiso   1.00
O362   O     0.99890   0.24233   0.74963   0.00000  Uiso   1.00
N363   N     0.97128   0.54972   0.60347   0.00000  Uiso   1.00
N364   N     0.64445   0.42991   0.60345   0.00000  Uiso   1.00
N365   N     0.95841   0.29477   0.60313   0.00000  Uiso   1.00
N366   N     0.97129   0.54970   0.89662   0.00000  Uiso   1.00
N367   N     0.64446   0.42989   0.89660   0.00000  Uiso   1.00
N368   N     0.95842   0.29475   0.89629   0.00000  Uiso   1.00
