data_job_06221
_audit_creation_date              2018-12-19
_audit_creation_method            'Materials Studio'
_symmetry_space_group_name_H-M    'P1'
_symmetry_Int_Tables_number       1
_symmetry_cell_setting            triclinic
loop_
_symmetry_equiv_pos_as_xyz
  x,y,z
_cell_length_a                    18.2115
_cell_length_b                    18.2411
_cell_length_c                    18.2691
_cell_angle_alpha                 102.3020
_cell_angle_beta                  102.3170
_cell_angle_gamma                 102.3280
loop_
_atom_site_label
_atom_site_type_symbol
_atom_site_fract_x
_atom_site_fract_y
_atom_site_fract_z
_atom_site_U_iso_or_equiv
_atom_site_adp_type
_atom_site_occupancy
C1     C     0.57563   0.00424   0.26290   0.00000  Uiso   1.00
C2     C     0.51211   0.93200   0.25727   0.00000  Uiso   1.00
C3     C     0.44001   0.90369   0.20232   0.00000  Uiso   1.00
C4     C     0.39004   0.83681   0.20701   0.00000  Uiso   1.00
C5     C     0.28815   0.73032   0.18954   0.00000  Uiso   1.00
C6     C     0.59322   0.05684   0.34504   0.00000  Uiso   1.00
C7     C     0.58932   0.13348   0.36389   0.00000  Uiso   1.00
C8     C     0.60763   0.17169   0.44246   0.00000  Uiso   1.00
C9     C     0.63171   0.25903   0.56126   0.00000  Uiso   1.00
C10    C     0.64860   0.97699   0.25905   0.00000  Uiso   1.00
C11    C     0.69128   0.98651   0.20560   0.00000  Uiso   1.00
C12    C     0.75623   0.95750   0.21179   0.00000  Uiso   1.00
C13    C     0.86629   0.92086   0.19706   0.00000  Uiso   1.00
C14    C     0.61511   0.93581   0.36893   0.00000  Uiso   1.00
C15    C     0.53356   0.89484   0.31487   0.00000  Uiso   1.00
C16    C     0.48369   0.82797   0.31964   0.00000  Uiso   1.00
C17    C     0.41152   0.79957   0.26471   0.00000  Uiso   1.00
C18    C     0.61466   0.01967   0.40264   0.00000  Uiso   1.00
C19    C     0.63299   0.05777   0.48121   0.00000  Uiso   1.00
C20    C     0.62911   0.13445   0.50016   0.00000  Uiso   1.00
C21    C     0.67004   0.93981   0.31664   0.00000  Uiso   1.00
C22    C     0.73495   0.91079   0.32292   0.00000  Uiso   1.00
C23    C     0.77771   0.92027   0.26949   0.00000  Uiso   1.00
H24    H     0.55893   0.03318   0.21806   0.00000  Uiso   1.00
H25    H     0.42343   0.93248   0.15776   0.00000  Uiso   1.00
H26    H     0.57273   0.16224   0.31930   0.00000  Uiso   1.00
H27    H     0.67466   0.01528   0.16104   0.00000  Uiso   1.00
H28    H     0.28265   0.80445   0.11633   0.00000  Uiso   1.00
H29    H     0.59747   0.28892   0.45694   0.00000  Uiso   1.00
H30    H     0.81243   0.97904   0.12322   0.00000  Uiso   1.00
H31    H     0.63180   0.90687   0.41378   0.00000  Uiso   1.00
H32    H     0.50030   0.79922   0.36422   0.00000  Uiso   1.00
H33    H     0.64959   0.02899   0.52576   0.00000  Uiso   1.00
H34    H     0.75153   0.88203   0.36750   0.00000  Uiso   1.00
H35    H     0.34504   0.69630   0.28390   0.00000  Uiso   1.00
H36    H     0.65986   0.18077   0.62452   0.00000  Uiso   1.00
H37    H     0.87481   0.87089   0.29079   0.00000  Uiso   1.00
O38    O     0.22601   0.68186   0.16400   0.00000  Uiso   1.00
O39    O     0.63905   0.31747   0.61087   0.00000  Uiso   1.00
O40    O     0.92107   0.91090   0.17302   0.00000  Uiso   1.00
N41    N     0.31539   0.79376   0.16256   0.00000  Uiso   1.00
N42    N     0.60971   0.24671   0.48101   0.00000  Uiso   1.00
N43    N     0.81069   0.95701   0.16902   0.00000  Uiso   1.00
N44    N     0.34896   0.73556   0.25273   0.00000  Uiso   1.00
N45    N     0.64328   0.18851   0.57118   0.00000  Uiso   1.00
N46    N     0.84426   0.89881   0.25919   0.00000  Uiso   1.00
C47    C     0.26265   0.57558   0.00430   0.00000  Uiso   1.00
C48    C     0.25703   0.51220   0.93220   0.00000  Uiso   1.00
C49    C     0.20192   0.44020   0.90393   0.00000  Uiso   1.00
C50    C     0.20665   0.39034   0.83717   0.00000  Uiso   1.00
C51    C     0.18916   0.28864   0.73088   0.00000  Uiso   1.00
C52    C     0.34506   0.59317   0.05685   0.00000  Uiso   1.00
C53    C     0.36395   0.58926   0.13339   0.00000  Uiso   1.00
C54    C     0.44278   0.60757   0.17157   0.00000  Uiso   1.00
C55    C     0.56195   0.63164   0.25881   0.00000  Uiso   1.00
C56    C     0.25877   0.64843   0.97707   0.00000  Uiso   1.00
C57    C     0.20513   0.69101   0.98654   0.00000  Uiso   1.00
C58    C     0.21133   0.75586   0.95756   0.00000  Uiso   1.00
C59    C     0.19654   0.86573   0.92094   0.00000  Uiso   1.00
C60    C     0.36905   0.61507   0.93603   0.00000  Uiso   1.00
C61    C     0.31483   0.53365   0.89512   0.00000  Uiso   1.00
C62    C     0.31964   0.48388   0.82839   0.00000  Uiso   1.00
C63    C     0.26454   0.41182   0.80002   0.00000  Uiso   1.00
C64    C     0.40285   0.61461   0.01977   0.00000  Uiso   1.00
C65    C     0.48167   0.63294   0.05785   0.00000  Uiso   1.00
C66    C     0.50068   0.62906   0.13441   0.00000  Uiso   1.00
C67    C     0.31657   0.66988   0.93998   0.00000  Uiso   1.00
C68    C     0.32285   0.73468   0.91099   0.00000  Uiso   1.00
C69    C     0.26923   0.77734   0.92041   0.00000  Uiso   1.00
H70    H     0.21766   0.55889   0.03318   0.00000  Uiso   1.00
H71    H     0.15721   0.42362   0.93265   0.00000  Uiso   1.00
H72    H     0.31921   0.57267   0.16207   0.00000  Uiso   1.00
H73    H     0.16042   0.67439   0.01524   0.00000  Uiso   1.00
H74    H     0.11569   0.28310   0.80485   0.00000  Uiso   1.00
H75    H     0.45729   0.59740   0.28861   0.00000  Uiso   1.00
H76    H     0.12244   0.81191   0.97900   0.00000  Uiso   1.00
H77    H     0.41405   0.63176   0.90715   0.00000  Uiso   1.00
H78    H     0.36437   0.50049   0.79970   0.00000  Uiso   1.00
H79    H     0.52638   0.64954   0.02913   0.00000  Uiso   1.00
H80    H     0.36758   0.75126   0.88230   0.00000  Uiso   1.00
H81    H     0.28384   0.34549   0.69695   0.00000  Uiso   1.00
H82    H     0.62544   0.65980   0.18071   0.00000  Uiso   1.00
H83    H     0.29059   0.87430   0.87109   0.00000  Uiso   1.00
O84    O     0.16356   0.22662   0.68250   0.00000  Uiso   1.00
O85    O     0.61172   0.63898   0.31718   0.00000  Uiso   1.00
O86    O     0.17241   0.92041   0.91097   0.00000  Uiso   1.00
N87    N     0.16207   0.31580   0.79419   0.00000  Uiso   1.00
N88    N     0.48145   0.60965   0.24648   0.00000  Uiso   1.00
N89    N     0.16840   0.81020   0.95703   0.00000  Uiso   1.00
N90    N     0.25255   0.34938   0.73613   0.00000  Uiso   1.00
N91    N     0.57192   0.64322   0.18842   0.00000  Uiso   1.00
N92    N     0.25888   0.84378   0.89897   0.00000  Uiso   1.00
C93    C     0.00410   0.26275   0.57556   0.00000  Uiso   1.00
C94    C     0.93177   0.25713   0.51224   0.00000  Uiso   1.00
C95    C     0.90343   0.20212   0.44036   0.00000  Uiso   1.00
C96    C     0.83646   0.20682   0.39055   0.00000  Uiso   1.00
C97    C     0.72983   0.18934   0.28897   0.00000  Uiso   1.00
C98    C     0.05681   0.34504   0.59312   0.00000  Uiso   1.00
C99    C     0.13360   0.36394   0.58925   0.00000  Uiso   1.00
C100   C     0.17188   0.44265   0.60753   0.00000  Uiso   1.00
C101   C     0.25939   0.56165   0.63157   0.00000  Uiso   1.00
C102   C     0.97676   0.25885   0.64828   0.00000  Uiso   1.00
C103   C     0.98627   0.20530   0.69080   0.00000  Uiso   1.00
C104   C     0.95718   0.21145   0.75553   0.00000  Uiso   1.00
C105   C     0.92041   0.19664   0.86521   0.00000  Uiso   1.00
C106   C     0.93556   0.36893   0.61491   0.00000  Uiso   1.00
C107   C     0.89454   0.31480   0.53362   0.00000  Uiso   1.00
C108   C     0.82759   0.31959   0.48390   0.00000  Uiso   1.00
C109   C     0.79915   0.26459   0.41196   0.00000  Uiso   1.00
C110   C     0.01958   0.40271   0.61450   0.00000  Uiso   1.00
C111   C     0.05776   0.48141   0.63279   0.00000  Uiso   1.00
C112   C     0.13458   0.50042   0.62895   0.00000  Uiso   1.00
C113   C     0.93953   0.31652   0.66965   0.00000  Uiso   1.00
C114   C     0.91043   0.32276   0.73434   0.00000  Uiso   1.00
C115   C     0.91989   0.26923   0.77695   0.00000  Uiso   1.00
H116   H     0.03309   0.21786   0.55892   0.00000  Uiso   1.00
H117   H     0.93226   0.15751   0.42384   0.00000  Uiso   1.00
H118   H     0.16239   0.31930   0.57272   0.00000  Uiso   1.00
H119   H     0.01508   0.16068   0.67425   0.00000  Uiso   1.00
H120   H     0.80407   0.11604   0.28350   0.00000  Uiso   1.00
H121   H     0.28932   0.45720   0.59743   0.00000  Uiso   1.00
H122   H     0.97870   0.12272   0.81153   0.00000  Uiso   1.00
H123   H     0.90658   0.41383   0.63155   0.00000  Uiso   1.00
H124   H     0.79880   0.36422   0.50046   0.00000  Uiso   1.00
H125   H     0.02893   0.52602   0.64933   0.00000  Uiso   1.00
H126   H     0.88162   0.36740   0.75086   0.00000  Uiso   1.00
H127   H     0.69575   0.28382   0.34568   0.00000  Uiso   1.00
H128   H     0.18100   0.62498   0.65962   0.00000  Uiso   1.00
H129   H     0.87038   0.29050   0.87371   0.00000  Uiso   1.00
O130   O     0.68130   0.16378   0.22703   0.00000  Uiso   1.00
O131   O     0.31794   0.61136   0.63892   0.00000  Uiso   1.00
O132   O     0.91041   0.17253   0.91980   0.00000  Uiso   1.00
N133   N     0.79336   0.16233   0.31613   0.00000  Uiso   1.00
N134   N     0.24704   0.48128   0.60963   0.00000  Uiso   1.00
N135   N     0.95665   0.16859   0.80980   0.00000  Uiso   1.00
N136   N     0.73507   0.25261   0.34959   0.00000  Uiso   1.00
N137   N     0.18875   0.57156   0.64309   0.00000  Uiso   1.00
N138   N     0.89836   0.25887   0.84326   0.00000  Uiso   1.00
C139   C     0.42437   0.99576   0.73710   0.00000  Uiso   1.00
C140   C     0.48789   0.06800   0.74273   0.00000  Uiso   1.00
C141   C     0.55999   0.09631   0.79768   0.00000  Uiso   1.00
C142   C     0.60996   0.16319   0.79299   0.00000  Uiso   1.00
C143   C     0.71186   0.26968   0.81046   0.00000  Uiso   1.00
C144   C     0.40678   0.94316   0.65496   0.00000  Uiso   1.00
C145   C     0.41068   0.86652   0.63611   0.00000  Uiso   1.00
C146   C     0.39237   0.82831   0.55754   0.00000  Uiso   1.00
C147   C     0.36829   0.74097   0.43874   0.00000  Uiso   1.00
C148   C     0.35140   0.02301   0.74095   0.00000  Uiso   1.00
C149   C     0.30872   0.01349   0.79440   0.00000  Uiso   1.00
C150   C     0.24377   0.04250   0.78821   0.00000  Uiso   1.00
C151   C     0.13371   0.07914   0.80294   0.00000  Uiso   1.00
C152   C     0.38489   0.06419   0.63106   0.00000  Uiso   1.00
C153   C     0.46644   0.10516   0.68513   0.00000  Uiso   1.00
C154   C     0.51631   0.17203   0.68036   0.00000  Uiso   1.00
C155   C     0.58848   0.20043   0.73529   0.00000  Uiso   1.00
C156   C     0.38534   0.98033   0.59736   0.00000  Uiso   1.00
C157   C     0.36701   0.94223   0.51879   0.00000  Uiso   1.00
C158   C     0.37089   0.86555   0.49984   0.00000  Uiso   1.00
C159   C     0.32996   0.06019   0.68336   0.00000  Uiso   1.00
C160   C     0.26505   0.08921   0.67708   0.00000  Uiso   1.00
C161   C     0.22229   0.07973   0.73051   0.00000  Uiso   1.00
H162   H     0.44107   0.96682   0.78194   0.00000  Uiso   1.00
H163   H     0.57657   0.06752   0.84224   0.00000  Uiso   1.00
H164   H     0.42727   0.83776   0.68070   0.00000  Uiso   1.00
H165   H     0.32534   0.98472   0.83896   0.00000  Uiso   1.00
H166   H     0.71735   0.19555   0.88367   0.00000  Uiso   1.00
H167   H     0.40253   0.71108   0.54306   0.00000  Uiso   1.00
H168   H     0.18757   0.02096   0.87678   0.00000  Uiso   1.00
H169   H     0.36820   0.09313   0.58622   0.00000  Uiso   1.00
H170   H     0.49970   0.20078   0.63578   0.00000  Uiso   1.00
H171   H     0.35041   0.97101   0.47424   0.00000  Uiso   1.00
H172   H     0.24847   0.11797   0.63250   0.00000  Uiso   1.00
H173   H     0.65496   0.30370   0.71610   0.00000  Uiso   1.00
H174   H     0.34014   0.81923   0.37548   0.00000  Uiso   1.00
H175   H     0.12519   0.12911   0.70921   0.00000  Uiso   1.00
O176   O     0.77399   0.31814   0.83600   0.00000  Uiso   1.00
O177   O     0.36095   0.68253   0.38913   0.00000  Uiso   1.00
O178   O     0.07893   0.08910   0.82698   0.00000  Uiso   1.00
N179   N     0.68461   0.20624   0.83744   0.00000  Uiso   1.00
N180   N     0.39029   0.75329   0.51899   0.00000  Uiso   1.00
N181   N     0.18931   0.04299   0.83098   0.00000  Uiso   1.00
N182   N     0.65104   0.26444   0.74727   0.00000  Uiso   1.00
N183   N     0.35672   0.81149   0.42882   0.00000  Uiso   1.00
N184   N     0.15574   0.10119   0.74081   0.00000  Uiso   1.00
C185   C     0.73735   0.42442   0.99569   0.00000  Uiso   1.00
C186   C     0.74297   0.48780   0.06780   0.00000  Uiso   1.00
C187   C     0.79808   0.55980   0.09607   0.00000  Uiso   1.00
C188   C     0.79335   0.60966   0.16283   0.00000  Uiso   1.00
C189   C     0.81084   0.71136   0.26912   0.00000  Uiso   1.00
C190   C     0.65494   0.40683   0.94315   0.00000  Uiso   1.00
C191   C     0.63605   0.41074   0.86661   0.00000  Uiso   1.00
C192   C     0.55722   0.39243   0.82843   0.00000  Uiso   1.00
C193   C     0.43805   0.36836   0.74118   0.00000  Uiso   1.00
C194   C     0.74123   0.35157   0.02293   0.00000  Uiso   1.00
C195   C     0.79487   0.30899   0.01346   0.00000  Uiso   1.00
C196   C     0.78867   0.24414   0.04244   0.00000  Uiso   1.00
C197   C     0.80346   0.13427   0.07906   0.00000  Uiso   1.00
C198   C     0.63095   0.38493   0.06397   0.00000  Uiso   1.00
C199   C     0.68517   0.46635   0.10488   0.00000  Uiso   1.00
C200   C     0.68036   0.51612   0.17161   0.00000  Uiso   1.00
C201   C     0.73546   0.58818   0.19998   0.00000  Uiso   1.00
C202   C     0.59715   0.38539   0.98023   0.00000  Uiso   1.00
C203   C     0.51833   0.36706   0.94215   0.00000  Uiso   1.00
C204   C     0.49932   0.37094   0.86559   0.00000  Uiso   1.00
C205   C     0.68343   0.33012   0.06002   0.00000  Uiso   1.00
C206   C     0.67715   0.26532   0.08901   0.00000  Uiso   1.00
C207   C     0.73077   0.22266   0.07959   0.00000  Uiso   1.00
H208   H     0.78234   0.44111   0.96682   0.00000  Uiso   1.00
H209   H     0.84279   0.57638   0.06735   0.00000  Uiso   1.00
H210   H     0.68079   0.42733   0.83793   0.00000  Uiso   1.00
H211   H     0.83958   0.32561   0.98476   0.00000  Uiso   1.00
H212   H     0.88431   0.71690   0.19515   0.00000  Uiso   1.00
H213   H     0.54271   0.40260   0.71139   0.00000  Uiso   1.00
H214   H     0.87756   0.18809   0.02100   0.00000  Uiso   1.00
H215   H     0.58595   0.36824   0.09285   0.00000  Uiso   1.00
H216   H     0.63563   0.49951   0.20030   0.00000  Uiso   1.00
H217   H     0.47362   0.35046   0.97087   0.00000  Uiso   1.00
H218   H     0.63242   0.24874   0.11770   0.00000  Uiso   1.00
H219   H     0.71616   0.65451   0.30305   0.00000  Uiso   1.00
H220   H     0.37456   0.34020   0.81929   0.00000  Uiso   1.00
H221   H     0.70941   0.12570   0.12891   0.00000  Uiso   1.00
O222   O     0.83644   0.77338   0.31750   0.00000  Uiso   1.00
O223   O     0.38828   0.36102   0.68281   0.00000  Uiso   1.00
O224   O     0.82759   0.07959   0.08903   0.00000  Uiso   1.00
N225   N     0.83793   0.68420   0.20581   0.00000  Uiso   1.00
N226   N     0.51855   0.39035   0.75352   0.00000  Uiso   1.00
N227   N     0.83160   0.18980   0.04297   0.00000  Uiso   1.00
N228   N     0.74745   0.65062   0.26387   0.00000  Uiso   1.00
N229   N     0.42808   0.35678   0.81158   0.00000  Uiso   1.00
N230   N     0.74112   0.15622   0.10103   0.00000  Uiso   1.00
C231   C     0.99590   0.73725   0.42444   0.00000  Uiso   1.00
C232   C     0.06823   0.74287   0.48776   0.00000  Uiso   1.00
C233   C     0.09657   0.79788   0.55964   0.00000  Uiso   1.00
C234   C     0.16354   0.79318   0.60945   0.00000  Uiso   1.00
C235   C     0.27017   0.81066   0.71103   0.00000  Uiso   1.00
C236   C     0.94319   0.65496   0.40688   0.00000  Uiso   1.00
C237   C     0.86640   0.63606   0.41075   0.00000  Uiso   1.00
C238   C     0.82812   0.55735   0.39247   0.00000  Uiso   1.00
C239   C     0.74061   0.43835   0.36843   0.00000  Uiso   1.00
C240   C     0.02324   0.74115   0.35172   0.00000  Uiso   1.00
C241   C     0.01373   0.79470   0.30920   0.00000  Uiso   1.00
C242   C     0.04282   0.78855   0.24447   0.00000  Uiso   1.00
C243   C     0.07959   0.80336   0.13479   0.00000  Uiso   1.00
C244   C     0.06444   0.63107   0.38509   0.00000  Uiso   1.00
C245   C     0.10546   0.68520   0.46638   0.00000  Uiso   1.00
C246   C     0.17241   0.68041   0.51610   0.00000  Uiso   1.00
C247   C     0.20085   0.73541   0.58804   0.00000  Uiso   1.00
C248   C     0.98042   0.59729   0.38550   0.00000  Uiso   1.00
C249   C     0.94224   0.51859   0.36721   0.00000  Uiso   1.00
C250   C     0.86542   0.49958   0.37105   0.00000  Uiso   1.00
C251   C     0.06047   0.68348   0.33035   0.00000  Uiso   1.00
C252   C     0.08957   0.67724   0.26566   0.00000  Uiso   1.00
C253   C     0.08012   0.73077   0.22305   0.00000  Uiso   1.00
H254   H     0.96691   0.78214   0.44108   0.00000  Uiso   1.00
H255   H     0.06774   0.84249   0.57616   0.00000  Uiso   1.00
H256   H     0.83761   0.68070   0.42728   0.00000  Uiso   1.00
H257   H     0.98492   0.83932   0.32575   0.00000  Uiso   1.00
H258   H     0.19593   0.88396   0.71650   0.00000  Uiso   1.00
H259   H     0.71068   0.54280   0.40257   0.00000  Uiso   1.00
H260   H     0.02130   0.87728   0.18847   0.00000  Uiso   1.00
H261   H     0.09342   0.58617   0.36845   0.00000  Uiso   1.00
H262   H     0.20120   0.63578   0.49954   0.00000  Uiso   1.00
H263   H     0.97107   0.47398   0.35067   0.00000  Uiso   1.00
H264   H     0.11838   0.63260   0.24914   0.00000  Uiso   1.00
H265   H     0.30425   0.71618   0.65432   0.00000  Uiso   1.00
H266   H     0.81900   0.37502   0.34038   0.00000  Uiso   1.00
H267   H     0.12962   0.70950   0.12629   0.00000  Uiso   1.00
O268   O     0.31870   0.83622   0.77297   0.00000  Uiso   1.00
O269   O     0.68206   0.38864   0.36108   0.00000  Uiso   1.00
O270   O     0.08959   0.82747   0.08020   0.00000  Uiso   1.00
N271   N     0.20664   0.83767   0.68387   0.00000  Uiso   1.00
N272   N     0.75296   0.51872   0.39037   0.00000  Uiso   1.00
N273   N     0.04335   0.83141   0.19020   0.00000  Uiso   1.00
N274   N     0.26493   0.74739   0.65041   0.00000  Uiso   1.00
N275   N     0.81125   0.42844   0.35691   0.00000  Uiso   1.00
N276   N     0.10164   0.74113   0.15674   0.00000  Uiso   1.00
