data_job_06129
_audit_creation_date              2018-12-19
_audit_creation_method            'Materials Studio'
_symmetry_space_group_name_H-M    'P1'
_symmetry_Int_Tables_number       1
_symmetry_cell_setting            triclinic
loop_
_symmetry_equiv_pos_as_xyz
  x,y,z
_cell_length_a                    15.5565
_cell_length_b                    15.5297
_cell_length_c                    15.4728
_cell_angle_alpha                 82.4864
_cell_angle_beta                  82.4271
_cell_angle_gamma                 82.2890
loop_
_atom_site_label
_atom_site_type_symbol
_atom_site_fract_x
_atom_site_fract_y
_atom_site_fract_z
_atom_site_U_iso_or_equiv
_atom_site_adp_type
_atom_site_occupancy
C1     C     0.02713   0.31991   0.35964   0.00000  Uiso   1.00
C2     C     0.94345   0.35568   0.41291   0.00000  Uiso   1.00
C3     C     0.93217   0.35967   0.50284   0.00000  Uiso   1.00
C4     C     0.85064   0.39467   0.53923   0.00000  Uiso   1.00
C5     C     0.73100   0.44562   0.62982   0.00000  Uiso   1.00
C6     C     0.00229   0.24829   0.31232   0.00000  Uiso   1.00
C7     C     0.04048   0.16200   0.31766   0.00000  Uiso   1.00
C8     C     0.00848   0.10659   0.26935   0.00000  Uiso   1.00
C9     C     0.98023   0.99084   0.20372   0.00000  Uiso   1.00
C10    C     0.05018   0.39347   0.28839   0.00000  Uiso   1.00
C11    C     0.12866   0.42923   0.27360   0.00000  Uiso   1.00
C12    C     0.13700   0.49604   0.20514   0.00000  Uiso   1.00
C13    C     0.18312   0.60569   0.10237   0.00000  Uiso   1.00
C14    C     0.90242   0.37496   0.26435   0.00000  Uiso   1.00
C15    C     0.87571   0.38558   0.36115   0.00000  Uiso   1.00
C16    C     0.79419   0.42058   0.39742   0.00000  Uiso   1.00
C17    C     0.78278   0.42462   0.48738   0.00000  Uiso   1.00
C18    C     0.93455   0.27819   0.26056   0.00000  Uiso   1.00
C19    C     0.90250   0.22290   0.21223   0.00000  Uiso   1.00
C20    C     0.94062   0.13654   0.21750   0.00000  Uiso   1.00
C21    C     0.98245   0.42337   0.23664   0.00000  Uiso   1.00
C22    C     0.99068   0.49013   0.16818   0.00000  Uiso   1.00
C23    C     0.06914   0.52599   0.15329   0.00000  Uiso   1.00
H24    H     0.07987   0.29663   0.39993   0.00000  Uiso   1.00
H25    H     0.98460   0.33652   0.54287   0.00000  Uiso   1.00
H26    H     0.09290   0.13888   0.35771   0.00000  Uiso   1.00
H27    H     0.18106   0.40607   0.31366   0.00000  Uiso   1.00
H28    H     0.84910   0.39391   0.67852   0.00000  Uiso   1.00
H29    H     0.07747   0.97718   0.28808   0.00000  Uiso   1.00
H30    H     0.26339   0.54060   0.19520   0.00000  Uiso   1.00
H31    H     0.84968   0.39824   0.22406   0.00000  Uiso   1.00
H32    H     0.74178   0.44371   0.35735   0.00000  Uiso   1.00
H33    H     0.85008   0.24607   0.17219   0.00000  Uiso   1.00
H34    H     0.93824   0.51326   0.12814   0.00000  Uiso   1.00
H35    H     0.65201   0.48090   0.52795   0.00000  Uiso   1.00
H36    H     0.88039   0.06417   0.13750   0.00000  Uiso   1.00
H37    H     0.06630   0.62759   0.04462   0.00000  Uiso   1.00
O38    O     0.68372   0.46546   0.69410   0.00000  Uiso   1.00
O39    O     0.98335   0.91873   0.18183   0.00000  Uiso   1.00
O40    O     0.22726   0.65793   0.05999   0.00000  Uiso   1.00
N41    N     0.81753   0.40816   0.62479   0.00000  Uiso   1.00
N42    N     0.03103   0.01853   0.25976   0.00000  Uiso   1.00
N43    N     0.20486   0.54527   0.17291   0.00000  Uiso   1.00
N44    N     0.71148   0.45497   0.54377   0.00000  Uiso   1.00
N45    N     0.92498   0.06535   0.17873   0.00000  Uiso   1.00
N46    N     0.09881   0.59208   0.09189   0.00000  Uiso   1.00
C47    C     0.36044   0.02694   0.31972   0.00000  Uiso   1.00
C48    C     0.41355   0.94315   0.35546   0.00000  Uiso   1.00
C49    C     0.50301   0.93179   0.35947   0.00000  Uiso   1.00
C50    C     0.53932   0.85017   0.39442   0.00000  Uiso   1.00
C51    C     0.62961   0.73035   0.44533   0.00000  Uiso   1.00
C52    C     0.31353   0.00196   0.24777   0.00000  Uiso   1.00
C53    C     0.31889   0.04006   0.16124   0.00000  Uiso   1.00
C54    C     0.27099   0.00795   0.10555   0.00000  Uiso   1.00
C55    C     0.20595   0.97948   0.98929   0.00000  Uiso   1.00
C56    C     0.28942   0.05021   0.39357   0.00000  Uiso   1.00
C57    C     0.27449   0.12889   0.42962   0.00000  Uiso   1.00
C58    C     0.20627   0.13741   0.49667   0.00000  Uiso   1.00
C59    C     0.10379   0.18387   0.60679   0.00000  Uiso   1.00
C60    C     0.26584   0.90217   0.37467   0.00000  Uiso   1.00
C61    C     0.36216   0.87538   0.38530   0.00000  Uiso   1.00
C62    C     0.39835   0.79375   0.42026   0.00000  Uiso   1.00
C63    C     0.48785   0.78227   0.42433   0.00000  Uiso   1.00
C64    C     0.26215   0.93419   0.27761   0.00000  Uiso   1.00
C65    C     0.21423   0.90202   0.22204   0.00000  Uiso   1.00
C66    C     0.21952   0.94006   0.13545   0.00000  Uiso   1.00
C67    C     0.23803   0.98244   0.42342   0.00000  Uiso   1.00
C68    C     0.16983   0.99085   0.49042   0.00000  Uiso   1.00
C69    C     0.15480   0.06952   0.52657   0.00000  Uiso   1.00
H70    H     0.40044   0.07970   0.29647   0.00000  Uiso   1.00
H71    H     0.54276   0.98425   0.33635   0.00000  Uiso   1.00
H72    H     0.35865   0.09251   0.13817   0.00000  Uiso   1.00
H73    H     0.31426   0.18132   0.40651   0.00000  Uiso   1.00
H74    H     0.67788   0.84853   0.39370   0.00000  Uiso   1.00
H75    H     0.28967   0.07682   0.97582   0.00000  Uiso   1.00
H76    H     0.19606   0.26410   0.54166   0.00000  Uiso   1.00
H77    H     0.22583   0.84941   0.39790   0.00000  Uiso   1.00
H78    H     0.35857   0.74132   0.44335   0.00000  Uiso   1.00
H79    H     0.17447   0.84958   0.24516   0.00000  Uiso   1.00
H80    H     0.13008   0.93839   0.51350   0.00000  Uiso   1.00
H81    H     0.52839   0.65135   0.48054   0.00000  Uiso   1.00
H82    H     0.14017   0.87965   0.06265   0.00000  Uiso   1.00
H83    H     0.04657   0.06692   0.62850   0.00000  Uiso   1.00
O84    O     0.69361   0.68298   0.46516   0.00000  Uiso   1.00
O85    O     0.18427   0.98250   0.91692   0.00000  Uiso   1.00
O86    O     0.06147   0.22821   0.65930   0.00000  Uiso   1.00
N87    N     0.62448   0.81696   0.40792   0.00000  Uiso   1.00
N88    N     0.26153   0.03039   0.01722   0.00000  Uiso   1.00
N89    N     0.17400   0.20549   0.54622   0.00000  Uiso   1.00
N90    N     0.54404   0.71087   0.45465   0.00000  Uiso   1.00
N91    N     0.18109   0.92429   0.06395   0.00000  Uiso   1.00
N92    N     0.09356   0.09939   0.59295   0.00000  Uiso   1.00
C93    C     0.31996   0.36039   0.02734   0.00000  Uiso   1.00
C94    C     0.35552   0.41342   0.94337   0.00000  Uiso   1.00
C95    C     0.35934   0.50301   0.93216   0.00000  Uiso   1.00
C96    C     0.39415   0.53922   0.85033   0.00000  Uiso   1.00
C97    C     0.44479   0.62942   0.73029   0.00000  Uiso   1.00
C98    C     0.24853   0.31340   0.00214   0.00000  Uiso   1.00
C99    C     0.16239   0.31889   0.04037   0.00000  Uiso   1.00
C100   C     0.10715   0.27090   0.00801   0.00000  Uiso   1.00
C101   C     0.99169   0.20576   0.97927   0.00000  Uiso   1.00
C102   C     0.39353   0.28924   0.05056   0.00000  Uiso   1.00
C103   C     0.42930   0.27440   0.12951   0.00000  Uiso   1.00
C104   C     0.49612   0.20604   0.13794   0.00000  Uiso   1.00
C105   C     0.60580   0.10339   0.18437   0.00000  Uiso   1.00
C106   C     0.37499   0.26537   0.90193   0.00000  Uiso   1.00
C107   C     0.38541   0.36181   0.87525   0.00000  Uiso   1.00
C108   C     0.42024   0.39789   0.79341   0.00000  Uiso   1.00
C109   C     0.42411   0.48752   0.78209   0.00000  Uiso   1.00
C110   C     0.27842   0.26179   0.93403   0.00000  Uiso   1.00
C111   C     0.22329   0.21377   0.90161   0.00000  Uiso   1.00
C112   C     0.13709   0.21919   0.93977   0.00000  Uiso   1.00
C113   C     0.42343   0.23763   0.98245   0.00000  Uiso   1.00
C114   C     0.49020   0.16928   0.99076   0.00000  Uiso   1.00
C115   C     0.52607   0.15434   0.06970   0.00000  Uiso   1.00
H116   H     0.29667   0.40057   0.08037   0.00000  Uiso   1.00
H117   H     0.33619   0.54293   0.98489   0.00000  Uiso   1.00
H118   H     0.13928   0.35883   0.09308   0.00000  Uiso   1.00
H119   H     0.40615   0.31435   0.18221   0.00000  Uiso   1.00
H120   H     0.39315   0.67802   0.84898   0.00000  Uiso   1.00
H121   H     0.97796   0.28981   0.07713   0.00000  Uiso   1.00
H122   H     0.54070   0.19600   0.26508   0.00000  Uiso   1.00
H123   H     0.39827   0.22519   0.84890   0.00000  Uiso   1.00
H124   H     0.44336   0.35794   0.74071   0.00000  Uiso   1.00
H125   H     0.24645   0.17383   0.84890   0.00000  Uiso   1.00
H126   H     0.51331   0.12935   0.93803   0.00000  Uiso   1.00
H127   H     0.48014   0.52787   0.65079   0.00000  Uiso   1.00
H128   H     0.06494   0.13965   0.87895   0.00000  Uiso   1.00
H129   H     0.62769   0.04585   0.06689   0.00000  Uiso   1.00
O130   O     0.46445   0.69343   0.68289   0.00000  Uiso   1.00
O131   O     0.91974   0.18410   0.98223   0.00000  Uiso   1.00
O132   O     0.65804   0.06104   0.22880   0.00000  Uiso   1.00
N133   N     0.40745   0.62446   0.81719   0.00000  Uiso   1.00
N134   N     0.01927   0.26152   0.03049   0.00000  Uiso   1.00
N135   N     0.54537   0.17380   0.20621   0.00000  Uiso   1.00
N136   N     0.45426   0.54366   0.71055   0.00000  Uiso   1.00
N137   N     0.06608   0.18072   0.92385   0.00000  Uiso   1.00
N138   N     0.59217   0.09300   0.09957   0.00000  Uiso   1.00
C139   C     0.97287   0.68009   0.64036   0.00000  Uiso   1.00
C140   C     0.05655   0.64432   0.58709   0.00000  Uiso   1.00
C141   C     0.06783   0.64033   0.49716   0.00000  Uiso   1.00
C142   C     0.14936   0.60533   0.46077   0.00000  Uiso   1.00
C143   C     0.26900   0.55438   0.37018   0.00000  Uiso   1.00
C144   C     0.99772   0.75171   0.68768   0.00000  Uiso   1.00
C145   C     0.95952   0.83800   0.68234   0.00000  Uiso   1.00
C146   C     0.99152   0.89341   0.73065   0.00000  Uiso   1.00
C147   C     0.01977   0.00916   0.79628   0.00000  Uiso   1.00
C148   C     0.94982   0.60653   0.71161   0.00000  Uiso   1.00
C149   C     0.87134   0.57077   0.72640   0.00000  Uiso   1.00
C150   C     0.86300   0.50396   0.79486   0.00000  Uiso   1.00
C151   C     0.81688   0.39431   0.89763   0.00000  Uiso   1.00
C152   C     0.09758   0.62504   0.73565   0.00000  Uiso   1.00
C153   C     0.12429   0.61442   0.63885   0.00000  Uiso   1.00
C154   C     0.20581   0.57942   0.60258   0.00000  Uiso   1.00
C155   C     0.21722   0.57538   0.51262   0.00000  Uiso   1.00
C156   C     0.06545   0.72181   0.73944   0.00000  Uiso   1.00
C157   C     0.09750   0.77710   0.78776   0.00000  Uiso   1.00
C158   C     0.05938   0.86346   0.78250   0.00000  Uiso   1.00
C159   C     0.01755   0.57663   0.76336   0.00000  Uiso   1.00
C160   C     0.00933   0.50987   0.83182   0.00000  Uiso   1.00
C161   C     0.93086   0.47401   0.84671   0.00000  Uiso   1.00
H162   H     0.92013   0.70337   0.60007   0.00000  Uiso   1.00
H163   H     0.01540   0.66348   0.45713   0.00000  Uiso   1.00
H164   H     0.90710   0.86112   0.64229   0.00000  Uiso   1.00
H165   H     0.81894   0.59393   0.68634   0.00000  Uiso   1.00
H166   H     0.15090   0.60609   0.32148   0.00000  Uiso   1.00
H167   H     0.92253   0.02282   0.71192   0.00000  Uiso   1.00
H168   H     0.73661   0.45940   0.80480   0.00000  Uiso   1.00
H169   H     0.15032   0.60176   0.77594   0.00000  Uiso   1.00
H170   H     0.25822   0.55629   0.64265   0.00000  Uiso   1.00
H171   H     0.14992   0.75393   0.82781   0.00000  Uiso   1.00
H172   H     0.06176   0.48674   0.87185   0.00000  Uiso   1.00
H173   H     0.34799   0.51910   0.47205   0.00000  Uiso   1.00
H174   H     0.11961   0.93583   0.86250   0.00000  Uiso   1.00
H175   H     0.93370   0.37241   0.95537   0.00000  Uiso   1.00
O176   O     0.31628   0.53454   0.30590   0.00000  Uiso   1.00
O177   O     0.01665   0.08127   0.81817   0.00000  Uiso   1.00
O178   O     0.77274   0.34207   0.94001   0.00000  Uiso   1.00
N179   N     0.18247   0.59184   0.37521   0.00000  Uiso   1.00
N180   N     0.96897   0.98147   0.74024   0.00000  Uiso   1.00
N181   N     0.79514   0.45473   0.82709   0.00000  Uiso   1.00
N182   N     0.28852   0.54503   0.45623   0.00000  Uiso   1.00
N183   N     0.07502   0.93465   0.82127   0.00000  Uiso   1.00
N184   N     0.90119   0.40792   0.90811   0.00000  Uiso   1.00
C185   C     0.63956   0.97306   0.68028   0.00000  Uiso   1.00
C186   C     0.58645   0.05685   0.64454   0.00000  Uiso   1.00
C187   C     0.49699   0.06821   0.64053   0.00000  Uiso   1.00
C188   C     0.46068   0.14983   0.60558   0.00000  Uiso   1.00
C189   C     0.37039   0.26965   0.55467   0.00000  Uiso   1.00
C190   C     0.68647   0.99804   0.75223   0.00000  Uiso   1.00
C191   C     0.68111   0.95994   0.83876   0.00000  Uiso   1.00
C192   C     0.72901   0.99205   0.89445   0.00000  Uiso   1.00
C193   C     0.79405   0.02052   0.01071   0.00000  Uiso   1.00
C194   C     0.71058   0.94979   0.60643   0.00000  Uiso   1.00
C195   C     0.72551   0.87111   0.57038   0.00000  Uiso   1.00
C196   C     0.79373   0.86259   0.50333   0.00000  Uiso   1.00
C197   C     0.89621   0.81613   0.39321   0.00000  Uiso   1.00
C198   C     0.73416   0.09783   0.62533   0.00000  Uiso   1.00
C199   C     0.63784   0.12462   0.61470   0.00000  Uiso   1.00
C200   C     0.60165   0.20625   0.57974   0.00000  Uiso   1.00
C201   C     0.51215   0.21773   0.57567   0.00000  Uiso   1.00
C202   C     0.73785   0.06581   0.72239   0.00000  Uiso   1.00
C203   C     0.78577   0.09798   0.77796   0.00000  Uiso   1.00
C204   C     0.78048   0.05994   0.86455   0.00000  Uiso   1.00
C205   C     0.76197   0.01756   0.57658   0.00000  Uiso   1.00
C206   C     0.83017   0.00915   0.50958   0.00000  Uiso   1.00
C207   C     0.84520   0.93048   0.47343   0.00000  Uiso   1.00
H208   H     0.59956   0.92030   0.70353   0.00000  Uiso   1.00
H209   H     0.45724   0.01575   0.66365   0.00000  Uiso   1.00
H210   H     0.64135   0.90749   0.86183   0.00000  Uiso   1.00
H211   H     0.68574   0.81868   0.59349   0.00000  Uiso   1.00
H212   H     0.32212   0.15147   0.60630   0.00000  Uiso   1.00
H213   H     0.71033   0.92318   0.02418   0.00000  Uiso   1.00
H214   H     0.80394   0.73590   0.45834   0.00000  Uiso   1.00
H215   H     0.77417   0.15059   0.60210   0.00000  Uiso   1.00
H216   H     0.64143   0.25868   0.55665   0.00000  Uiso   1.00
H217   H     0.82553   0.15042   0.75484   0.00000  Uiso   1.00
H218   H     0.86992   0.06161   0.48650   0.00000  Uiso   1.00
H219   H     0.47161   0.34865   0.51946   0.00000  Uiso   1.00
H220   H     0.85983   0.12035   0.93735   0.00000  Uiso   1.00
H221   H     0.95343   0.93308   0.37150   0.00000  Uiso   1.00
O222   O     0.30640   0.31702   0.53484   0.00000  Uiso   1.00
O223   O     0.81573   0.01750   0.08308   0.00000  Uiso   1.00
O224   O     0.93853   0.77179   0.34070   0.00000  Uiso   1.00
N225   N     0.37552   0.18304   0.59208   0.00000  Uiso   1.00
N226   N     0.73847   0.96961   0.98278   0.00000  Uiso   1.00
N227   N     0.82600   0.79451   0.45378   0.00000  Uiso   1.00
N228   N     0.45596   0.28913   0.54535   0.00000  Uiso   1.00
N229   N     0.81891   0.07571   0.93605   0.00000  Uiso   1.00
N230   N     0.90644   0.90061   0.40705   0.00000  Uiso   1.00
C231   C     0.68005   0.63961   0.97266   0.00000  Uiso   1.00
C232   C     0.64448   0.58658   0.05663   0.00000  Uiso   1.00
C233   C     0.64066   0.49699   0.06784   0.00000  Uiso   1.00
C234   C     0.60585   0.46078   0.14967   0.00000  Uiso   1.00
C235   C     0.55521   0.37058   0.26971   0.00000  Uiso   1.00
C236   C     0.75147   0.68660   0.99786   0.00000  Uiso   1.00
C237   C     0.83761   0.68111   0.95963   0.00000  Uiso   1.00
C238   C     0.89285   0.72910   0.99199   0.00000  Uiso   1.00
C239   C     0.00831   0.79424   0.02073   0.00000  Uiso   1.00
C240   C     0.60647   0.71076   0.94943   0.00000  Uiso   1.00
C241   C     0.57070   0.72560   0.87049   0.00000  Uiso   1.00
C242   C     0.50388   0.79396   0.86206   0.00000  Uiso   1.00
C243   C     0.39420   0.89661   0.81562   0.00000  Uiso   1.00
C244   C     0.62501   0.73463   0.09807   0.00000  Uiso   1.00
C245   C     0.61459   0.63819   0.12475   0.00000  Uiso   1.00
C246   C     0.57976   0.60211   0.20659   0.00000  Uiso   1.00
C247   C     0.57589   0.51248   0.21791   0.00000  Uiso   1.00
C248   C     0.72158   0.73821   0.06597   0.00000  Uiso   1.00
C249   C     0.77671   0.78623   0.09839   0.00000  Uiso   1.00
C250   C     0.86291   0.78081   0.06023   0.00000  Uiso   1.00
C251   C     0.57658   0.76237   0.01755   0.00000  Uiso   1.00
C252   C     0.50980   0.83072   0.00924   0.00000  Uiso   1.00
C253   C     0.47393   0.84566   0.93030   0.00000  Uiso   1.00
H254   H     0.70333   0.59943   0.91963   0.00000  Uiso   1.00
H255   H     0.66381   0.45707   0.01511   0.00000  Uiso   1.00
H256   H     0.86072   0.64117   0.90692   0.00000  Uiso   1.00
H257   H     0.59385   0.68565   0.81779   0.00000  Uiso   1.00
H258   H     0.60685   0.32198   0.15102   0.00000  Uiso   1.00
H259   H     0.02204   0.71019   0.92287   0.00000  Uiso   1.00
H260   H     0.45930   0.80400   0.73492   0.00000  Uiso   1.00
H261   H     0.60173   0.77481   0.15110   0.00000  Uiso   1.00
H262   H     0.55664   0.64206   0.25929   0.00000  Uiso   1.00
H263   H     0.75355   0.82617   0.15110   0.00000  Uiso   1.00
H264   H     0.48669   0.87065   0.06197   0.00000  Uiso   1.00
H265   H     0.51986   0.47213   0.34920   0.00000  Uiso   1.00
H266   H     0.93506   0.86035   0.12105   0.00000  Uiso   1.00
H267   H     0.37231   0.95415   0.93311   0.00000  Uiso   1.00
O268   O     0.53555   0.30657   0.31711   0.00000  Uiso   1.00
O269   O     0.08026   0.81590   0.01777   0.00000  Uiso   1.00
O270   O     0.34196   0.93896   0.77120   0.00000  Uiso   1.00
N271   N     0.59255   0.37554   0.18281   0.00000  Uiso   1.00
N272   N     0.98073   0.73848   0.96951   0.00000  Uiso   1.00
N273   N     0.45463   0.82620   0.79379   0.00000  Uiso   1.00
N274   N     0.54574   0.45634   0.28945   0.00000  Uiso   1.00
N275   N     0.93393   0.81928   0.07615   0.00000  Uiso   1.00
N276   N     0.40783   0.90700   0.90043   0.00000  Uiso   1.00
