data_job_06299
_audit_creation_date              2018-12-19
_audit_creation_method            'Materials Studio'
_symmetry_space_group_name_H-M    'P1'
_symmetry_Int_Tables_number       1
_symmetry_cell_setting            triclinic
loop_
_symmetry_equiv_pos_as_xyz
  x,y,z
_cell_length_a                    16.8227
_cell_length_b                    16.5136
_cell_length_c                    15.7911
_cell_angle_alpha                 96.1803
_cell_angle_beta                  96.1017
_cell_angle_gamma                 94.8203
loop_
_atom_site_label
_atom_site_type_symbol
_atom_site_fract_x
_atom_site_fract_y
_atom_site_fract_z
_atom_site_U_iso_or_equiv
_atom_site_adp_type
_atom_site_occupancy
C1     C     0.62837   0.67829   0.13905   0.00000  Uiso   1.00
C2     C     0.65796   0.72974   0.22439   0.00000  Uiso   1.00
C3     C     0.64882   0.81211   0.24429   0.00000  Uiso   1.00
C4     C     0.68012   0.84810   0.32585   0.00000  Uiso   1.00
C5     C     0.72017   0.93482   0.44930   0.00000  Uiso   1.00
C6     C     0.70199   0.64240   0.10746   0.00000  Uiso   1.00
C7     C     0.72987   0.65132   0.02904   0.00000  Uiso   1.00
C8     C     0.79824   0.61376   0.01218   0.00000  Uiso   1.00
C9     C     0.90662   0.56482   0.95407   0.00000  Uiso   1.00
C10    C     0.57439   0.60616   0.16031   0.00000  Uiso   1.00
C11    C     0.49498   0.58460   0.12631   0.00000  Uiso   1.00
C12    C     0.45591   0.51653   0.15392   0.00000  Uiso   1.00
C13    C     0.36616   0.41134   0.17786   0.00000  Uiso   1.00
C14    C     0.70020   0.59573   0.24851   0.00000  Uiso   1.00
C15    C     0.69698   0.68489   0.28384   0.00000  Uiso   1.00
C16    C     0.72830   0.72076   0.36540   0.00000  Uiso   1.00
C17    C     0.71921   0.80317   0.38541   0.00000  Uiso   1.00
C18    C     0.74101   0.59755   0.16691   0.00000  Uiso   1.00
C19    C     0.80935   0.55997   0.15015   0.00000  Uiso   1.00
C20    C     0.83733   0.56883   0.07174   0.00000  Uiso   1.00
C21    C     0.61340   0.56132   0.21977   0.00000  Uiso   1.00
C22    C     0.57446   0.49326   0.24742   0.00000  Uiso   1.00
C23    C     0.49500   0.47160   0.21348   0.00000  Uiso   1.00
H24    H     0.59799   0.71321   0.09276   0.00000  Uiso   1.00
H25    H     0.61863   0.84680   0.19825   0.00000  Uiso   1.00
H26    H     0.69966   0.68602   0.98305   0.00000  Uiso   1.00
H27    H     0.46480   0.61932   0.08030   0.00000  Uiso   1.00
H28    H     0.65874   0.97514   0.34143   0.00000  Uiso   1.00
H29    H     0.82958   0.63611   0.88763   0.00000  Uiso   1.00
H30    H     0.33434   0.49546   0.09271   0.00000  Uiso   1.00
H31    H     0.73058   0.56081   0.29480   0.00000  Uiso   1.00
H32    H     0.75849   0.68604   0.41139   0.00000  Uiso   1.00
H33    H     0.83953   0.52526   0.19618   0.00000  Uiso   1.00
H34    H     0.60467   0.45857   0.29343   0.00000  Uiso   1.00
H35    H     0.77226   0.84467   0.51442   0.00000  Uiso   1.00
H36    H     0.94311   0.50563   0.06062   0.00000  Uiso   1.00
H37    H     0.44786   0.36498   0.26570   0.00000  Uiso   1.00
O38    O     0.73149   0.99504   0.50096   0.00000  Uiso   1.00
O39    O     0.95562   0.55023   0.90560   0.00000  Uiso   1.00
O40    O     0.30588   0.36571   0.17465   0.00000  Uiso   1.00
N41    N     0.68161   0.92724   0.36614   0.00000  Uiso   1.00
N42    N     0.84135   0.61028   0.94188   0.00000  Uiso   1.00
N43    N     0.37834   0.47877   0.13359   0.00000  Uiso   1.00
N44    N     0.74269   0.85703   0.45923   0.00000  Uiso   1.00
N45    N     0.90244   0.54007   0.03497   0.00000  Uiso   1.00
N46    N     0.43943   0.40856   0.22668   0.00000  Uiso   1.00
C47    C     0.15235   0.62930   0.67727   0.00000  Uiso   1.00
C48    C     0.23176   0.65938   0.73183   0.00000  Uiso   1.00
C49    C     0.25012   0.65074   0.81797   0.00000  Uiso   1.00
C50    C     0.32604   0.68245   0.85637   0.00000  Uiso   1.00
C51    C     0.44089   0.72328   0.94813   0.00000  Uiso   1.00
C52    C     0.12188   0.70416   0.64052   0.00000  Uiso   1.00
C53    C     0.04785   0.73315   0.64988   0.00000  Uiso   1.00
C54    C     0.03127   0.80254   0.61139   0.00000  Uiso   1.00
C55    C     0.97549   0.91284   0.56134   0.00000  Uiso   1.00
C56    C     0.17344   0.57348   0.60120   0.00000  Uiso   1.00
C57    C     0.14275   0.49260   0.57748   0.00000  Uiso   1.00
C58    C     0.16956   0.45197   0.50589   0.00000  Uiso   1.00
C59    C     0.19384   0.35938   0.39479   0.00000  Uiso   1.00
C60    C     0.25453   0.70098   0.59228   0.00000  Uiso   1.00
C61    C     0.28726   0.69832   0.68567   0.00000  Uiso   1.00
C62    C     0.36318   0.73004   0.72394   0.00000  Uiso   1.00
C63    C     0.38165   0.72145   0.81012   0.00000  Uiso   1.00
C64    C     0.17738   0.74309   0.59436   0.00000  Uiso   1.00
C65    C     0.16090   0.81245   0.55585   0.00000  Uiso   1.00
C66    C     0.08687   0.84154   0.56515   0.00000  Uiso   1.00
C67    C     0.22894   0.61241   0.55504   0.00000  Uiso   1.00
C68    C     0.25580   0.57191   0.48346   0.00000  Uiso   1.00
C69    C     0.22516   0.49098   0.45964   0.00000  Uiso   1.00
H70    H     0.10914   0.59899   0.71320   0.00000  Uiso   1.00
H71    H     0.20715   0.62061   0.85368   0.00000  Uiso   1.00
H72    H     0.00491   0.70300   0.68560   0.00000  Uiso   1.00
H73    H     0.09980   0.46249   0.61322   0.00000  Uiso   1.00
H74    H     0.34028   0.66178   0.98906   0.00000  Uiso   1.00
H75    H     0.91383   0.83549   0.63464   0.00000  Uiso   1.00
H76    H     0.11391   0.32833   0.48202   0.00000  Uiso   1.00
H77    H     0.29774   0.73129   0.55633   0.00000  Uiso   1.00
H78    H     0.40611   0.76017   0.68820   0.00000  Uiso   1.00
H79    H     0.20386   0.84256   0.52012   0.00000  Uiso   1.00
H80    H     0.29875   0.60205   0.44775   0.00000  Uiso   1.00
H81    H     0.50176   0.77506   0.85476   0.00000  Uiso   1.00
H82    H     0.07530   0.94876   0.50033   0.00000  Uiso   1.00
H83    H     0.27540   0.44160   0.34772   0.00000  Uiso   1.00
O84    O     0.48890   0.73505   0.01150   0.00000  Uiso   1.00
O85    O     0.92940   0.96294   0.54649   0.00000  Uiso   1.00
O86    O     0.19191   0.29756   0.34627   0.00000  Uiso   1.00
N87    N     0.36342   0.68446   0.93936   0.00000  Uiso   1.00
N88    N     0.96471   0.84687   0.60800   0.00000  Uiso   1.00
N89    N     0.15176   0.37273   0.46530   0.00000  Uiso   1.00
N90    N     0.45031   0.74541   0.86709   0.00000  Uiso   1.00
N91    N     0.05161   0.90782   0.53573   0.00000  Uiso   1.00
N92    N     0.23866   0.43368   0.39303   0.00000  Uiso   1.00
C93    C     0.68017   0.14841   0.62528   0.00000  Uiso   1.00
C94    C     0.73012   0.22924   0.65801   0.00000  Uiso   1.00
C95    C     0.81076   0.24730   0.64957   0.00000  Uiso   1.00
C96    C     0.84557   0.32470   0.68387   0.00000  Uiso   1.00
C97    C     0.92988   0.44149   0.72845   0.00000  Uiso   1.00
C98    C     0.64570   0.11832   0.70305   0.00000  Uiso   1.00
C99    C     0.65536   0.04313   0.73247   0.00000  Uiso   1.00
C100   C     0.61910   0.02715   0.80468   0.00000  Uiso   1.00
C101   C     0.57230   0.97172   0.91915   0.00000  Uiso   1.00
C102   C     0.60879   0.16984   0.56683   0.00000  Uiso   1.00
C103   C     0.58738   0.13795   0.48172   0.00000  Uiso   1.00
C104   C     0.52003   0.16534   0.43926   0.00000  Uiso   1.00
C105   C     0.41592   0.18990   0.34224   0.00000  Uiso   1.00
C106   C     0.59860   0.25373   0.70122   0.00000  Uiso   1.00
C107   C     0.68581   0.28644   0.69925   0.00000  Uiso   1.00
C108   C     0.72051   0.36383   0.73358   0.00000  Uiso   1.00
C109   C     0.80119   0.38201   0.72519   0.00000  Uiso   1.00
C110   C     0.60140   0.17553   0.74429   0.00000  Uiso   1.00
C111   C     0.56511   0.15966   0.81648   0.00000  Uiso   1.00
C112   C     0.57471   0.08446   0.84600   0.00000  Uiso   1.00
C113   C     0.56448   0.22705   0.60808   0.00000  Uiso   1.00
C114   C     0.49715   0.25449   0.56574   0.00000  Uiso   1.00
C115   C     0.47565   0.22265   0.48058   0.00000  Uiso   1.00
H116   H     0.71466   0.10387   0.59317   0.00000  Uiso   1.00
H117   H     0.84502   0.20301   0.61765   0.00000  Uiso   1.00
H118   H     0.68964   0.99887   0.70053   0.00000  Uiso   1.00
H119   H     0.62168   0.09368   0.44983   0.00000  Uiso   1.00
H120   H     0.97002   0.33815   0.66300   0.00000  Uiso   1.00
H121   H     0.64237   0.90769   0.83775   0.00000  Uiso   1.00
H122   H     0.49907   0.10762   0.30909   0.00000  Uiso   1.00
H123   H     0.56411   0.29827   0.73333   0.00000  Uiso   1.00
H124   H     0.68621   0.40809   0.76549   0.00000  Uiso   1.00
H125   H     0.53083   0.20394   0.84838   0.00000  Uiso   1.00
H126   H     0.46288   0.29876   0.59768   0.00000  Uiso   1.00
H127   H     0.84113   0.50460   0.78300   0.00000  Uiso   1.00
H128   H     0.51347   0.07413   0.95775   0.00000  Uiso   1.00
H129   H     0.37017   0.27407   0.42909   0.00000  Uiso   1.00
O130   O     0.98863   0.49010   0.74166   0.00000  Uiso   1.00
O131   O     0.55874   0.92534   0.97090   0.00000  Uiso   1.00
O132   O     0.37074   0.18765   0.27732   0.00000  Uiso   1.00
N133   N     0.92293   0.36226   0.68681   0.00000  Uiso   1.00
N134   N     0.61660   0.95980   0.85020   0.00000  Uiso   1.00
N135   N     0.48261   0.14671   0.35596   0.00000  Uiso   1.00
N136   N     0.85357   0.45182   0.75138   0.00000  Uiso   1.00
N137   N     0.54724   0.04937   0.91477   0.00000  Uiso   1.00
N138   N     0.41326   0.23627   0.42053   0.00000  Uiso   1.00
C139   C     0.37163   0.32171   0.86095   0.00000  Uiso   1.00
C140   C     0.34204   0.27026   0.77561   0.00000  Uiso   1.00
C141   C     0.35118   0.18789   0.75571   0.00000  Uiso   1.00
C142   C     0.31988   0.15190   0.67415   0.00000  Uiso   1.00
C143   C     0.27983   0.06518   0.55070   0.00000  Uiso   1.00
C144   C     0.29801   0.35760   0.89254   0.00000  Uiso   1.00
C145   C     0.27013   0.34868   0.97096   0.00000  Uiso   1.00
C146   C     0.20176   0.38624   0.98782   0.00000  Uiso   1.00
C147   C     0.09338   0.43518   0.04593   0.00000  Uiso   1.00
C148   C     0.42561   0.39384   0.83969   0.00000  Uiso   1.00
C149   C     0.50502   0.41540   0.87369   0.00000  Uiso   1.00
C150   C     0.54409   0.48347   0.84609   0.00000  Uiso   1.00
C151   C     0.63384   0.58867   0.82214   0.00000  Uiso   1.00
C152   C     0.29980   0.40427   0.75149   0.00000  Uiso   1.00
C153   C     0.30302   0.31511   0.71616   0.00000  Uiso   1.00
C154   C     0.27170   0.27924   0.63460   0.00000  Uiso   1.00
C155   C     0.28079   0.19683   0.61459   0.00000  Uiso   1.00
C156   C     0.25899   0.40245   0.83309   0.00000  Uiso   1.00
C157   C     0.19065   0.44003   0.84985   0.00000  Uiso   1.00
C158   C     0.16267   0.43117   0.92826   0.00000  Uiso   1.00
C159   C     0.38660   0.43868   0.78023   0.00000  Uiso   1.00
C160   C     0.42554   0.50674   0.75258   0.00000  Uiso   1.00
C161   C     0.50500   0.52840   0.78652   0.00000  Uiso   1.00
H162   H     0.40201   0.28679   0.90724   0.00000  Uiso   1.00
H163   H     0.38137   0.15320   0.80175   0.00000  Uiso   1.00
H164   H     0.30034   0.31398   0.01695   0.00000  Uiso   1.00
H165   H     0.53520   0.38068   0.91970   0.00000  Uiso   1.00
H166   H     0.34126   0.02486   0.65857   0.00000  Uiso   1.00
H167   H     0.17042   0.36389   0.11236   0.00000  Uiso   1.00
H168   H     0.66566   0.50454   0.90729   0.00000  Uiso   1.00
H169   H     0.26942   0.43919   0.70520   0.00000  Uiso   1.00
H170   H     0.24151   0.31396   0.58861   0.00000  Uiso   1.00
H171   H     0.16047   0.47474   0.80382   0.00000  Uiso   1.00
H172   H     0.39533   0.54143   0.70657   0.00000  Uiso   1.00
H173   H     0.22774   0.15533   0.48558   0.00000  Uiso   1.00
H174   H     0.05689   0.49437   0.93938   0.00000  Uiso   1.00
H175   H     0.55214   0.63502   0.73430   0.00000  Uiso   1.00
O176   O     0.26851   0.00496   0.49904   0.00000  Uiso   1.00
O177   O     0.04438   0.44977   0.09440   0.00000  Uiso   1.00
O178   O     0.69412   0.63429   0.82535   0.00000  Uiso   1.00
N179   N     0.31839   0.07276   0.63386   0.00000  Uiso   1.00
N180   N     0.15865   0.38972   0.05812   0.00000  Uiso   1.00
N181   N     0.62166   0.52123   0.86641   0.00000  Uiso   1.00
N182   N     0.25731   0.14297   0.54077   0.00000  Uiso   1.00
N183   N     0.09756   0.45993   0.96503   0.00000  Uiso   1.00
N184   N     0.56057   0.59144   0.77332   0.00000  Uiso   1.00
C185   C     0.84765   0.37070   0.32273   0.00000  Uiso   1.00
C186   C     0.76824   0.34062   0.26817   0.00000  Uiso   1.00
C187   C     0.74988   0.34926   0.18203   0.00000  Uiso   1.00
C188   C     0.67396   0.31755   0.14363   0.00000  Uiso   1.00
C189   C     0.55911   0.27672   0.05187   0.00000  Uiso   1.00
C190   C     0.87812   0.29584   0.35948   0.00000  Uiso   1.00
C191   C     0.95215   0.26685   0.35012   0.00000  Uiso   1.00
C192   C     0.96873   0.19746   0.38861   0.00000  Uiso   1.00
C193   C     0.02451   0.08716   0.43866   0.00000  Uiso   1.00
C194   C     0.82656   0.42652   0.39880   0.00000  Uiso   1.00
C195   C     0.85726   0.50740   0.42252   0.00000  Uiso   1.00
C196   C     0.83044   0.54803   0.49412   0.00000  Uiso   1.00
C197   C     0.80616   0.64062   0.60521   0.00000  Uiso   1.00
C198   C     0.74547   0.29902   0.40772   0.00000  Uiso   1.00
C199   C     0.71274   0.30168   0.31433   0.00000  Uiso   1.00
C200   C     0.63682   0.26996   0.27606   0.00000  Uiso   1.00
C201   C     0.61835   0.27855   0.18988   0.00000  Uiso   1.00
C202   C     0.82262   0.25691   0.40564   0.00000  Uiso   1.00
C203   C     0.83910   0.18755   0.44415   0.00000  Uiso   1.00
C204   C     0.91313   0.15846   0.43485   0.00000  Uiso   1.00
C205   C     0.77106   0.38759   0.44496   0.00000  Uiso   1.00
C206   C     0.74420   0.42809   0.51654   0.00000  Uiso   1.00
C207   C     0.77484   0.50902   0.54036   0.00000  Uiso   1.00
H208   H     0.89086   0.40101   0.28680   0.00000  Uiso   1.00
H209   H     0.79285   0.37939   0.14632   0.00000  Uiso   1.00
H210   H     0.99509   0.29700   0.31440   0.00000  Uiso   1.00
H211   H     0.90020   0.53751   0.38678   0.00000  Uiso   1.00
H212   H     0.65972   0.33822   0.01094   0.00000  Uiso   1.00
H213   H     0.08617   0.16451   0.36536   0.00000  Uiso   1.00
H214   H     0.88609   0.67167   0.51798   0.00000  Uiso   1.00
H215   H     0.70226   0.26871   0.44367   0.00000  Uiso   1.00
H216   H     0.59389   0.23983   0.31180   0.00000  Uiso   1.00
H217   H     0.79614   0.15744   0.47988   0.00000  Uiso   1.00
H218   H     0.70125   0.39795   0.55225   0.00000  Uiso   1.00
H219   H     0.49824   0.22494   0.14524   0.00000  Uiso   1.00
H220   H     0.92470   0.05124   0.49967   0.00000  Uiso   1.00
H221   H     0.72460   0.55840   0.65228   0.00000  Uiso   1.00
O222   O     0.51110   0.26495   0.98850   0.00000  Uiso   1.00
O223   O     0.07060   0.03706   0.45351   0.00000  Uiso   1.00
O224   O     0.80809   0.70244   0.65373   0.00000  Uiso   1.00
N225   N     0.63658   0.31554   0.06064   0.00000  Uiso   1.00
N226   N     0.03529   0.15313   0.39200   0.00000  Uiso   1.00
N227   N     0.84824   0.62727   0.53470   0.00000  Uiso   1.00
N228   N     0.54969   0.25459   0.13291   0.00000  Uiso   1.00
N229   N     0.94839   0.09218   0.46427   0.00000  Uiso   1.00
N230   N     0.76134   0.56632   0.60697   0.00000  Uiso   1.00
C231   C     0.31983   0.85159   0.37472   0.00000  Uiso   1.00
C232   C     0.26988   0.77076   0.34199   0.00000  Uiso   1.00
C233   C     0.18924   0.75270   0.35043   0.00000  Uiso   1.00
C234   C     0.15443   0.67530   0.31613   0.00000  Uiso   1.00
C235   C     0.07012   0.55851   0.27155   0.00000  Uiso   1.00
C236   C     0.35430   0.88168   0.29695   0.00000  Uiso   1.00
C237   C     0.34464   0.95687   0.26753   0.00000  Uiso   1.00
C238   C     0.38090   0.97285   0.19532   0.00000  Uiso   1.00
C239   C     0.42770   0.02828   0.08085   0.00000  Uiso   1.00
C240   C     0.39121   0.83016   0.43317   0.00000  Uiso   1.00
C241   C     0.41262   0.86205   0.51828   0.00000  Uiso   1.00
C242   C     0.47997   0.83466   0.56074   0.00000  Uiso   1.00
C243   C     0.58408   0.81010   0.65776   0.00000  Uiso   1.00
C244   C     0.40140   0.74627   0.29878   0.00000  Uiso   1.00
C245   C     0.31419   0.71356   0.30075   0.00000  Uiso   1.00
C246   C     0.27949   0.63617   0.26642   0.00000  Uiso   1.00
C247   C     0.19881   0.61799   0.27481   0.00000  Uiso   1.00
C248   C     0.39860   0.82447   0.25571   0.00000  Uiso   1.00
C249   C     0.43489   0.84034   0.18352   0.00000  Uiso   1.00
C250   C     0.42529   0.91554   0.15400   0.00000  Uiso   1.00
C251   C     0.43552   0.77295   0.39192   0.00000  Uiso   1.00
C252   C     0.50285   0.74551   0.43426   0.00000  Uiso   1.00
C253   C     0.52435   0.77735   0.51942   0.00000  Uiso   1.00
H254   H     0.28534   0.89613   0.40683   0.00000  Uiso   1.00
H255   H     0.15498   0.79699   0.38235   0.00000  Uiso   1.00
H256   H     0.31036   0.00114   0.29947   0.00000  Uiso   1.00
H257   H     0.37832   0.90632   0.55017   0.00000  Uiso   1.00
H258   H     0.02998   0.66185   0.33700   0.00000  Uiso   1.00
H259   H     0.35763   0.09231   0.16225   0.00000  Uiso   1.00
H260   H     0.50093   0.89238   0.69091   0.00000  Uiso   1.00
H261   H     0.43589   0.70173   0.26667   0.00000  Uiso   1.00
H262   H     0.31379   0.59191   0.23451   0.00000  Uiso   1.00
H263   H     0.46917   0.79606   0.15162   0.00000  Uiso   1.00
H264   H     0.53712   0.70124   0.40232   0.00000  Uiso   1.00
H265   H     0.15887   0.49540   0.21700   0.00000  Uiso   1.00
H266   H     0.48653   0.92587   0.04225   0.00000  Uiso   1.00
H267   H     0.62983   0.72593   0.57091   0.00000  Uiso   1.00
O268   O     0.01137   0.50990   0.25834   0.00000  Uiso   1.00
O269   O     0.44126   0.07466   0.02910   0.00000  Uiso   1.00
O270   O     0.62926   0.81235   0.72268   0.00000  Uiso   1.00
N271   N     0.07707   0.63774   0.31319   0.00000  Uiso   1.00
N272   N     0.38340   0.04020   0.14980   0.00000  Uiso   1.00
N273   N     0.51739   0.85329   0.64404   0.00000  Uiso   1.00
N274   N     0.14643   0.54818   0.24862   0.00000  Uiso   1.00
N275   N     0.45276   0.95063   0.08523   0.00000  Uiso   1.00
N276   N     0.58674   0.76373   0.57947   0.00000  Uiso   1.00
