data_job_04070
_audit_creation_date              2018-12-19
_audit_creation_method            'Materials Studio'
_symmetry_space_group_name_H-M    'P1'
_symmetry_Int_Tables_number       1
_symmetry_cell_setting            triclinic
loop_
_symmetry_equiv_pos_as_xyz
  x,y,z
_cell_length_a                    12.5918
_cell_length_b                    7.2114
_cell_length_c                    23.9982
_cell_angle_alpha                 90.0000
_cell_angle_beta                  69.6130
_cell_angle_gamma                 90.0000
loop_
_atom_site_label
_atom_site_type_symbol
_atom_site_fract_x
_atom_site_fract_y
_atom_site_fract_z
_atom_site_U_iso_or_equiv
_atom_site_adp_type
_atom_site_occupancy
C1     C     0.79893   0.29354   0.18123   0.00000  Uiso   1.00
C2     C     0.89305   0.14885   0.16607   0.00000  Uiso   1.00
C3     C     0.00778   0.18338   0.13785   0.00000  Uiso   1.00
C4     C     0.08035   0.03228   0.12798   0.00000  Uiso   1.00
C5     C     0.23270   0.83484   0.10172   0.00000  Uiso   1.00
C6     C     0.71597   0.22737   0.15192   0.00000  Uiso   1.00
C7     C     0.68180   0.32794   0.11181   0.00000  Uiso   1.00
C8     C     0.60529   0.24294   0.09003   0.00000  Uiso   1.00
C9     C     0.48266   0.16746   0.04184   0.00000  Uiso   1.00
C10    C     0.73627   0.27842   0.24806   0.00000  Uiso   1.00
C11    C     0.71913   0.42193   0.28879   0.00000  Uiso   1.00
C12    C     0.65968   0.37992   0.34796   0.00000  Uiso   1.00
C13    C     0.56857   0.38371   0.44904   0.00000  Uiso   1.00
C14    C     0.72379   0.96378   0.21388   0.00000  Uiso   1.00
C15    C     0.85224   0.96973   0.18380   0.00000  Uiso   1.00
C16    C     0.92465   0.81854   0.17398   0.00000  Uiso   1.00
C17    C     0.03947   0.85284   0.14575   0.00000  Uiso   1.00
C18    C     0.67516   0.04826   0.16965   0.00000  Uiso   1.00
C19    C     0.59867   0.96310   0.14793   0.00000  Uiso   1.00
C20    C     0.56440   0.06351   0.10780   0.00000  Uiso   1.00
C21    C     0.69546   0.09930   0.26580   0.00000  Uiso   1.00
C22    C     0.63601   0.05707   0.32491   0.00000  Uiso   1.00
C23    C     0.61880   0.20048   0.36573   0.00000  Uiso   1.00
H24    H     0.83069   0.43299   0.16742   0.00000  Uiso   1.00
H25    H     0.03933   0.32201   0.12413   0.00000  Uiso   1.00
H26    H     0.71339   0.46655   0.09810   0.00000  Uiso   1.00
H27    H     0.75072   0.56051   0.27505   0.00000  Uiso   1.00
H28    H     0.25263   0.11998   0.08394   0.00000  Uiso   1.00
H29    H     0.56535   0.42477   0.02907   0.00000  Uiso   1.00
H30    H     0.64407   0.62292   0.40221   0.00000  Uiso   1.00
H31    H     0.69202   0.82432   0.22768   0.00000  Uiso   1.00
H32    H     0.89305   0.67994   0.18770   0.00000  Uiso   1.00
H33    H     0.56711   0.82449   0.16167   0.00000  Uiso   1.00
H34    H     0.60444   0.91845   0.33862   0.00000  Uiso   1.00
H35    H     0.13391   0.59885   0.13553   0.00000  Uiso   1.00
H36    H     0.44661   0.90365   0.08066   0.00000  Uiso   1.00
H37    H     0.52534   0.10179   0.45380   0.00000  Uiso   1.00
O38    O     0.32801   0.77541   0.08233   0.00000  Uiso   1.00
O39    O     0.42630   0.17531   0.01035   0.00000  Uiso   1.00
O40    O     0.52959   0.43527   0.49990   0.00000  Uiso   1.00
N41    N     0.19710   0.01715   0.10158   0.00000  Uiso   1.00
N42    N     0.55455   0.30211   0.05027   0.00000  Uiso   1.00
N43    N     0.62812   0.48737   0.39912   0.00000  Uiso   1.00
N44    N     0.13322   0.73674   0.12934   0.00000  Uiso   1.00
N45    N     0.49066   0.02169   0.07803   0.00000  Uiso   1.00
N46    N     0.56423   0.20695   0.42688   0.00000  Uiso   1.00
C47    C     0.20107   0.79354   0.81877   0.00000  Uiso   1.00
C48    C     0.10695   0.64885   0.83393   0.00000  Uiso   1.00
C49    C     0.99222   0.68338   0.86215   0.00000  Uiso   1.00
C50    C     0.91965   0.53228   0.87202   0.00000  Uiso   1.00
C51    C     0.76730   0.33484   0.89828   0.00000  Uiso   1.00
C52    C     0.28403   0.72737   0.84808   0.00000  Uiso   1.00
C53    C     0.31820   0.82794   0.88819   0.00000  Uiso   1.00
C54    C     0.39471   0.74294   0.90997   0.00000  Uiso   1.00
C55    C     0.51734   0.66746   0.95816   0.00000  Uiso   1.00
C56    C     0.26373   0.77842   0.75194   0.00000  Uiso   1.00
C57    C     0.28087   0.92193   0.71121   0.00000  Uiso   1.00
C58    C     0.34032   0.87992   0.65204   0.00000  Uiso   1.00
C59    C     0.43143   0.88371   0.55096   0.00000  Uiso   1.00
C60    C     0.27621   0.46378   0.78612   0.00000  Uiso   1.00
C61    C     0.14776   0.46973   0.81620   0.00000  Uiso   1.00
C62    C     0.07535   0.31854   0.82602   0.00000  Uiso   1.00
C63    C     0.96053   0.35284   0.85425   0.00000  Uiso   1.00
C64    C     0.32484   0.54826   0.83035   0.00000  Uiso   1.00
C65    C     0.40133   0.46310   0.85207   0.00000  Uiso   1.00
C66    C     0.43560   0.56351   0.89220   0.00000  Uiso   1.00
C67    C     0.30454   0.59930   0.73420   0.00000  Uiso   1.00
C68    C     0.36399   0.55707   0.67509   0.00000  Uiso   1.00
C69    C     0.38120   0.70048   0.63427   0.00000  Uiso   1.00
H70    H     0.16931   0.93299   0.83258   0.00000  Uiso   1.00
H71    H     0.96067   0.82201   0.87587   0.00000  Uiso   1.00
H72    H     0.28661   0.96655   0.90190   0.00000  Uiso   1.00
H73    H     0.24928   0.06051   0.72495   0.00000  Uiso   1.00
H74    H     0.74737   0.61998   0.91606   0.00000  Uiso   1.00
H75    H     0.43465   0.92477   0.97093   0.00000  Uiso   1.00
H76    H     0.35593   0.12292   0.59779   0.00000  Uiso   1.00
H77    H     0.30798   0.32432   0.77232   0.00000  Uiso   1.00
H78    H     0.10695   0.17994   0.81230   0.00000  Uiso   1.00
H79    H     0.43289   0.32449   0.83833   0.00000  Uiso   1.00
H80    H     0.39556   0.41845   0.66138   0.00000  Uiso   1.00
H81    H     0.86609   0.09885   0.86447   0.00000  Uiso   1.00
H82    H     0.55339   0.40365   0.91934   0.00000  Uiso   1.00
H83    H     0.47466   0.60179   0.54620   0.00000  Uiso   1.00
O84    O     0.67199   0.27541   0.91767   0.00000  Uiso   1.00
O85    O     0.57370   0.67531   0.98965   0.00000  Uiso   1.00
O86    O     0.47041   0.93527   0.50010   0.00000  Uiso   1.00
N87    N     0.80290   0.51715   0.89842   0.00000  Uiso   1.00
N88    N     0.44545   0.80211   0.94973   0.00000  Uiso   1.00
N89    N     0.37188   0.98737   0.60088   0.00000  Uiso   1.00
N90    N     0.86678   0.23674   0.87066   0.00000  Uiso   1.00
N91    N     0.50934   0.52169   0.92197   0.00000  Uiso   1.00
N92    N     0.43577   0.70695   0.57312   0.00000  Uiso   1.00
