data_job_03156
_audit_creation_date              2018-12-19
_audit_creation_method            'Materials Studio'
_symmetry_space_group_name_H-M    'P1'
_symmetry_Int_Tables_number       1
_symmetry_cell_setting            triclinic
loop_
_symmetry_equiv_pos_as_xyz
  x,y,z
_cell_length_a                    27.8017
_cell_length_b                    13.1831
_cell_length_c                    15.4280
_cell_angle_alpha                 90.0000
_cell_angle_beta                  59.9454
_cell_angle_gamma                 90.0000
loop_
_atom_site_label
_atom_site_type_symbol
_atom_site_fract_x
_atom_site_fract_y
_atom_site_fract_z
_atom_site_U_iso_or_equiv
_atom_site_adp_type
_atom_site_occupancy
C1     C     0.31686   0.04062   0.82187   0.00000  Uiso   1.00
C2     C     0.33701   0.93982   0.84059   0.00000  Uiso   1.00
C3     C     0.33405   0.91056   0.92954   0.00000  Uiso   1.00
C4     C     0.35476   0.81530   0.93157   0.00000  Uiso   1.00
C5     C     0.38261   0.66848   0.97339   0.00000  Uiso   1.00
C6     C     0.36685   0.08779   0.73130   0.00000  Uiso   1.00
C7     C     0.38896   0.18295   0.72837   0.00000  Uiso   1.00
C8     C     0.43478   0.21226   0.63839   0.00000  Uiso   1.00
C9     C     0.50891   0.29520   0.51052   0.00000  Uiso   1.00
C10    C     0.27553   0.01397   0.78778   0.00000  Uiso   1.00
C11    C     0.22088   0.04709   0.83232   0.00000  Uiso   1.00
C12    C     0.18982   0.01427   0.78988   0.00000  Uiso   1.00
C13    C     0.12218   0.98259   0.74970   0.00000  Uiso   1.00
C14    C     0.35890   0.92346   0.66728   0.00000  Uiso   1.00
C15    C     0.35985   0.87618   0.75662   0.00000  Uiso   1.00
C16    C     0.38057   0.78094   0.75851   0.00000  Uiso   1.00
C17    C     0.37764   0.75155   0.84746   0.00000  Uiso   1.00
C18    C     0.38968   0.02416   0.64733   0.00000  Uiso   1.00
C19    C     0.43547   0.05333   0.55733   0.00000  Uiso   1.00
C20    C     0.45766   0.14851   0.55427   0.00000  Uiso   1.00
C21    C     0.29837   0.95033   0.70382   0.00000  Uiso   1.00
C22    C     0.26739   0.91746   0.66129   0.00000  Uiso   1.00
C23    C     0.21270   0.95052   0.70576   0.00000  Uiso   1.00
H24    H     0.29908   0.09017   0.88724   0.00000  Uiso   1.00
H25    H     0.31638   0.95984   0.99451   0.00000  Uiso   1.00
H26    H     0.37128   0.23218   0.79336   0.00000  Uiso   1.00
H27    H     0.20322   0.09633   0.89730   0.00000  Uiso   1.00
H28    H     0.34565   0.78729   0.07639   0.00000  Uiso   1.00
H29    H     0.46139   0.36157   0.65225   0.00000  Uiso   1.00
H30    H     0.10700   0.07511   0.87143   0.00000  Uiso   1.00
H31    H     0.37668   0.87392   0.60190   0.00000  Uiso   1.00
H32    H     0.39824   0.73171   0.69352   0.00000  Uiso   1.00
H33    H     0.45313   0.00407   0.49237   0.00000  Uiso   1.00
H34    H     0.28508   0.86822   0.59631   0.00000  Uiso   1.00
H35    H     0.41209   0.60214   0.83210   0.00000  Uiso   1.00
H36    H     0.52782   0.17642   0.40795   0.00000  Uiso   1.00
H37    H     0.17344   0.88996   0.62713   0.00000  Uiso   1.00
O38    O     0.39167   0.60508   0.01965   0.00000  Uiso   1.00
O39    O     0.54350   0.35852   0.46319   0.00000  Uiso   1.00
O40    O     0.07856   0.98269   0.75075   0.00000  Uiso   1.00
N41    N     0.35832   0.76322   0.00633   0.00000  Uiso   1.00
N42    N     0.46653   0.30013   0.60979   0.00000  Uiso   1.00
N43    N     0.13522   0.03234   0.81468   0.00000  Uiso   1.00
N44    N     0.39407   0.66359   0.87488   0.00000  Uiso   1.00
N45    N     0.50228   0.20050   0.47834   0.00000  Uiso   1.00
N46    N     0.17097   0.93271   0.68323   0.00000  Uiso   1.00
C47    C     0.81686   0.54062   0.82187   0.00000  Uiso   1.00
C48    C     0.83701   0.43982   0.84059   0.00000  Uiso   1.00
C49    C     0.83405   0.41056   0.92954   0.00000  Uiso   1.00
C50    C     0.85476   0.31530   0.93157   0.00000  Uiso   1.00
C51    C     0.88261   0.16848   0.97339   0.00000  Uiso   1.00
C52    C     0.86685   0.58779   0.73130   0.00000  Uiso   1.00
C53    C     0.88896   0.68295   0.72837   0.00000  Uiso   1.00
C54    C     0.93478   0.71226   0.63839   0.00000  Uiso   1.00
C55    C     0.00891   0.79520   0.51052   0.00000  Uiso   1.00
C56    C     0.77553   0.51397   0.78778   0.00000  Uiso   1.00
C57    C     0.72088   0.54709   0.83232   0.00000  Uiso   1.00
C58    C     0.68982   0.51427   0.78988   0.00000  Uiso   1.00
C59    C     0.62218   0.48259   0.74970   0.00000  Uiso   1.00
C60    C     0.85890   0.42346   0.66728   0.00000  Uiso   1.00
C61    C     0.85985   0.37618   0.75662   0.00000  Uiso   1.00
C62    C     0.88057   0.28094   0.75851   0.00000  Uiso   1.00
C63    C     0.87764   0.25155   0.84746   0.00000  Uiso   1.00
C64    C     0.88968   0.52416   0.64733   0.00000  Uiso   1.00
C65    C     0.93547   0.55333   0.55733   0.00000  Uiso   1.00
C66    C     0.95766   0.64851   0.55427   0.00000  Uiso   1.00
C67    C     0.79837   0.45033   0.70382   0.00000  Uiso   1.00
C68    C     0.76739   0.41746   0.66129   0.00000  Uiso   1.00
C69    C     0.71270   0.45052   0.70576   0.00000  Uiso   1.00
H70    H     0.79908   0.59017   0.88724   0.00000  Uiso   1.00
H71    H     0.81638   0.45984   0.99451   0.00000  Uiso   1.00
H72    H     0.87128   0.73218   0.79336   0.00000  Uiso   1.00
H73    H     0.70322   0.59633   0.89730   0.00000  Uiso   1.00
H74    H     0.84565   0.28729   0.07639   0.00000  Uiso   1.00
H75    H     0.96139   0.86157   0.65225   0.00000  Uiso   1.00
H76    H     0.60700   0.57511   0.87143   0.00000  Uiso   1.00
H77    H     0.87668   0.37392   0.60190   0.00000  Uiso   1.00
H78    H     0.89824   0.23171   0.69352   0.00000  Uiso   1.00
H79    H     0.95313   0.50407   0.49237   0.00000  Uiso   1.00
H80    H     0.78508   0.36822   0.59631   0.00000  Uiso   1.00
H81    H     0.91209   0.10214   0.83210   0.00000  Uiso   1.00
H82    H     0.02782   0.67642   0.40795   0.00000  Uiso   1.00
H83    H     0.67344   0.38996   0.62713   0.00000  Uiso   1.00
O84    O     0.89167   0.10508   0.01965   0.00000  Uiso   1.00
O85    O     0.04350   0.85852   0.46319   0.00000  Uiso   1.00
O86    O     0.57856   0.48269   0.75075   0.00000  Uiso   1.00
N87    N     0.85832   0.26322   0.00633   0.00000  Uiso   1.00
N88    N     0.96653   0.80013   0.60979   0.00000  Uiso   1.00
N89    N     0.63522   0.53234   0.81468   0.00000  Uiso   1.00
N90    N     0.89407   0.16359   0.87488   0.00000  Uiso   1.00
N91    N     0.00228   0.70050   0.47834   0.00000  Uiso   1.00
N92    N     0.67097   0.43271   0.68323   0.00000  Uiso   1.00
C93    C     0.68314   0.04062   0.67813   0.00000  Uiso   1.00
C94    C     0.66299   0.93982   0.65941   0.00000  Uiso   1.00
C95    C     0.66595   0.91056   0.57046   0.00000  Uiso   1.00
C96    C     0.64524   0.81530   0.56843   0.00000  Uiso   1.00
C97    C     0.61739   0.66848   0.52661   0.00000  Uiso   1.00
C98    C     0.63315   0.08779   0.76870   0.00000  Uiso   1.00
C99    C     0.61104   0.18295   0.77163   0.00000  Uiso   1.00
C100   C     0.56522   0.21226   0.86161   0.00000  Uiso   1.00
C101   C     0.49109   0.29520   0.98948   0.00000  Uiso   1.00
C102   C     0.72447   0.01397   0.71222   0.00000  Uiso   1.00
C103   C     0.77912   0.04709   0.66768   0.00000  Uiso   1.00
C104   C     0.81018   0.01427   0.71012   0.00000  Uiso   1.00
C105   C     0.87782   0.98259   0.75030   0.00000  Uiso   1.00
C106   C     0.64110   0.92346   0.83272   0.00000  Uiso   1.00
C107   C     0.64015   0.87618   0.74338   0.00000  Uiso   1.00
C108   C     0.61943   0.78094   0.74149   0.00000  Uiso   1.00
C109   C     0.62236   0.75155   0.65254   0.00000  Uiso   1.00
C110   C     0.61032   0.02416   0.85267   0.00000  Uiso   1.00
C111   C     0.56453   0.05333   0.94267   0.00000  Uiso   1.00
C112   C     0.54234   0.14851   0.94573   0.00000  Uiso   1.00
C113   C     0.70163   0.95033   0.79618   0.00000  Uiso   1.00
C114   C     0.73261   0.91746   0.83871   0.00000  Uiso   1.00
C115   C     0.78730   0.95052   0.79424   0.00000  Uiso   1.00
H116   H     0.70092   0.09017   0.61276   0.00000  Uiso   1.00
H117   H     0.68362   0.95984   0.50549   0.00000  Uiso   1.00
H118   H     0.62872   0.23218   0.70664   0.00000  Uiso   1.00
H119   H     0.79678   0.09633   0.60270   0.00000  Uiso   1.00
H120   H     0.65435   0.78729   0.42361   0.00000  Uiso   1.00
H121   H     0.53861   0.36157   0.84775   0.00000  Uiso   1.00
H122   H     0.89300   0.07511   0.62857   0.00000  Uiso   1.00
H123   H     0.62332   0.87392   0.89810   0.00000  Uiso   1.00
H124   H     0.60176   0.73171   0.80648   0.00000  Uiso   1.00
H125   H     0.54687   0.00407   0.00763   0.00000  Uiso   1.00
H126   H     0.71492   0.86822   0.90369   0.00000  Uiso   1.00
H127   H     0.58791   0.60214   0.66790   0.00000  Uiso   1.00
H128   H     0.47218   0.17642   0.09205   0.00000  Uiso   1.00
H129   H     0.82656   0.88996   0.87287   0.00000  Uiso   1.00
O130   O     0.60833   0.60508   0.48035   0.00000  Uiso   1.00
O131   O     0.45650   0.35852   0.03681   0.00000  Uiso   1.00
O132   O     0.92144   0.98269   0.74925   0.00000  Uiso   1.00
N133   N     0.64168   0.76322   0.49367   0.00000  Uiso   1.00
N134   N     0.53347   0.30013   0.89021   0.00000  Uiso   1.00
N135   N     0.86478   0.03234   0.68532   0.00000  Uiso   1.00
N136   N     0.60593   0.66359   0.62512   0.00000  Uiso   1.00
N137   N     0.49772   0.20050   0.02166   0.00000  Uiso   1.00
N138   N     0.82903   0.93271   0.81677   0.00000  Uiso   1.00
C139   C     0.18314   0.54062   0.67813   0.00000  Uiso   1.00
C140   C     0.16299   0.43982   0.65941   0.00000  Uiso   1.00
C141   C     0.16595   0.41056   0.57046   0.00000  Uiso   1.00
C142   C     0.14524   0.31530   0.56843   0.00000  Uiso   1.00
C143   C     0.11739   0.16848   0.52661   0.00000  Uiso   1.00
C144   C     0.13315   0.58779   0.76870   0.00000  Uiso   1.00
C145   C     0.11104   0.68295   0.77163   0.00000  Uiso   1.00
C146   C     0.06522   0.71226   0.86161   0.00000  Uiso   1.00
C147   C     0.99109   0.79520   0.98948   0.00000  Uiso   1.00
C148   C     0.22447   0.51397   0.71222   0.00000  Uiso   1.00
C149   C     0.27912   0.54709   0.66768   0.00000  Uiso   1.00
C150   C     0.31018   0.51427   0.71012   0.00000  Uiso   1.00
C151   C     0.37782   0.48259   0.75030   0.00000  Uiso   1.00
C152   C     0.14110   0.42346   0.83272   0.00000  Uiso   1.00
C153   C     0.14015   0.37618   0.74338   0.00000  Uiso   1.00
C154   C     0.11943   0.28094   0.74149   0.00000  Uiso   1.00
C155   C     0.12236   0.25155   0.65254   0.00000  Uiso   1.00
C156   C     0.11032   0.52416   0.85267   0.00000  Uiso   1.00
C157   C     0.06453   0.55333   0.94267   0.00000  Uiso   1.00
C158   C     0.04234   0.64851   0.94573   0.00000  Uiso   1.00
C159   C     0.20163   0.45033   0.79618   0.00000  Uiso   1.00
C160   C     0.23261   0.41746   0.83871   0.00000  Uiso   1.00
C161   C     0.28730   0.45052   0.79424   0.00000  Uiso   1.00
H162   H     0.20092   0.59017   0.61276   0.00000  Uiso   1.00
H163   H     0.18362   0.45984   0.50549   0.00000  Uiso   1.00
H164   H     0.12872   0.73218   0.70664   0.00000  Uiso   1.00
H165   H     0.29678   0.59633   0.60270   0.00000  Uiso   1.00
H166   H     0.15435   0.28729   0.42361   0.00000  Uiso   1.00
H167   H     0.03861   0.86157   0.84775   0.00000  Uiso   1.00
H168   H     0.39300   0.57511   0.62857   0.00000  Uiso   1.00
H169   H     0.12332   0.37392   0.89810   0.00000  Uiso   1.00
H170   H     0.10176   0.23171   0.80648   0.00000  Uiso   1.00
H171   H     0.04687   0.50407   0.00763   0.00000  Uiso   1.00
H172   H     0.21492   0.36822   0.90369   0.00000  Uiso   1.00
H173   H     0.08791   0.10214   0.66790   0.00000  Uiso   1.00
H174   H     0.97218   0.67642   0.09205   0.00000  Uiso   1.00
H175   H     0.32656   0.38996   0.87287   0.00000  Uiso   1.00
O176   O     0.10833   0.10508   0.48035   0.00000  Uiso   1.00
O177   O     0.95650   0.85852   0.03681   0.00000  Uiso   1.00
O178   O     0.42144   0.48269   0.74925   0.00000  Uiso   1.00
N179   N     0.14168   0.26322   0.49367   0.00000  Uiso   1.00
N180   N     0.03347   0.80013   0.89021   0.00000  Uiso   1.00
N181   N     0.36478   0.53234   0.68532   0.00000  Uiso   1.00
N182   N     0.10593   0.16359   0.62512   0.00000  Uiso   1.00
N183   N     0.99772   0.70050   0.02166   0.00000  Uiso   1.00
N184   N     0.32903   0.43271   0.81677   0.00000  Uiso   1.00
C185   C     0.68314   0.95938   0.17813   0.00000  Uiso   1.00
C186   C     0.66299   0.06018   0.15941   0.00000  Uiso   1.00
C187   C     0.66595   0.08944   0.07046   0.00000  Uiso   1.00
C188   C     0.64524   0.18470   0.06843   0.00000  Uiso   1.00
C189   C     0.61739   0.33152   0.02661   0.00000  Uiso   1.00
C190   C     0.63315   0.91221   0.26870   0.00000  Uiso   1.00
C191   C     0.61104   0.81705   0.27163   0.00000  Uiso   1.00
C192   C     0.56522   0.78774   0.36161   0.00000  Uiso   1.00
C193   C     0.49109   0.70480   0.48948   0.00000  Uiso   1.00
C194   C     0.72447   0.98603   0.21222   0.00000  Uiso   1.00
C195   C     0.77912   0.95291   0.16768   0.00000  Uiso   1.00
C196   C     0.81018   0.98573   0.21012   0.00000  Uiso   1.00
C197   C     0.87782   0.01741   0.25030   0.00000  Uiso   1.00
C198   C     0.64110   0.07654   0.33272   0.00000  Uiso   1.00
C199   C     0.64015   0.12382   0.24338   0.00000  Uiso   1.00
C200   C     0.61943   0.21906   0.24149   0.00000  Uiso   1.00
C201   C     0.62236   0.24845   0.15254   0.00000  Uiso   1.00
C202   C     0.61032   0.97584   0.35267   0.00000  Uiso   1.00
C203   C     0.56453   0.94667   0.44267   0.00000  Uiso   1.00
C204   C     0.54234   0.85149   0.44573   0.00000  Uiso   1.00
C205   C     0.70163   0.04967   0.29618   0.00000  Uiso   1.00
C206   C     0.73261   0.08254   0.33871   0.00000  Uiso   1.00
C207   C     0.78730   0.04948   0.29424   0.00000  Uiso   1.00
H208   H     0.70092   0.90983   0.11276   0.00000  Uiso   1.00
H209   H     0.68362   0.04016   0.00549   0.00000  Uiso   1.00
H210   H     0.62872   0.76782   0.20664   0.00000  Uiso   1.00
H211   H     0.79678   0.90367   0.10270   0.00000  Uiso   1.00
H212   H     0.65435   0.21271   0.92361   0.00000  Uiso   1.00
H213   H     0.53861   0.63843   0.34775   0.00000  Uiso   1.00
H214   H     0.89300   0.92489   0.12857   0.00000  Uiso   1.00
H215   H     0.62332   0.12608   0.39810   0.00000  Uiso   1.00
H216   H     0.60176   0.26829   0.30648   0.00000  Uiso   1.00
H217   H     0.54687   0.99593   0.50763   0.00000  Uiso   1.00
H218   H     0.71492   0.13178   0.40369   0.00000  Uiso   1.00
H219   H     0.58791   0.39786   0.16790   0.00000  Uiso   1.00
H220   H     0.47218   0.82358   0.59205   0.00000  Uiso   1.00
H221   H     0.82656   0.11004   0.37287   0.00000  Uiso   1.00
O222   O     0.60833   0.39492   0.98035   0.00000  Uiso   1.00
O223   O     0.45650   0.64148   0.53681   0.00000  Uiso   1.00
O224   O     0.92144   0.01731   0.24925   0.00000  Uiso   1.00
N225   N     0.64168   0.23678   0.99367   0.00000  Uiso   1.00
N226   N     0.53347   0.69987   0.39021   0.00000  Uiso   1.00
N227   N     0.86478   0.96766   0.18532   0.00000  Uiso   1.00
N228   N     0.60593   0.33641   0.12512   0.00000  Uiso   1.00
N229   N     0.49772   0.79950   0.52166   0.00000  Uiso   1.00
N230   N     0.82903   0.06729   0.31677   0.00000  Uiso   1.00
C231   C     0.18314   0.45938   0.17813   0.00000  Uiso   1.00
C232   C     0.16299   0.56018   0.15941   0.00000  Uiso   1.00
C233   C     0.16595   0.58944   0.07046   0.00000  Uiso   1.00
C234   C     0.14524   0.68470   0.06843   0.00000  Uiso   1.00
C235   C     0.11739   0.83152   0.02661   0.00000  Uiso   1.00
C236   C     0.13315   0.41221   0.26870   0.00000  Uiso   1.00
C237   C     0.11104   0.31705   0.27163   0.00000  Uiso   1.00
C238   C     0.06522   0.28774   0.36161   0.00000  Uiso   1.00
C239   C     0.99109   0.20480   0.48948   0.00000  Uiso   1.00
C240   C     0.22447   0.48603   0.21222   0.00000  Uiso   1.00
C241   C     0.27912   0.45291   0.16768   0.00000  Uiso   1.00
C242   C     0.31018   0.48573   0.21012   0.00000  Uiso   1.00
C243   C     0.37782   0.51741   0.25030   0.00000  Uiso   1.00
C244   C     0.14110   0.57654   0.33272   0.00000  Uiso   1.00
C245   C     0.14015   0.62382   0.24338   0.00000  Uiso   1.00
C246   C     0.11943   0.71906   0.24149   0.00000  Uiso   1.00
C247   C     0.12236   0.74845   0.15254   0.00000  Uiso   1.00
C248   C     0.11032   0.47584   0.35267   0.00000  Uiso   1.00
C249   C     0.06453   0.44667   0.44267   0.00000  Uiso   1.00
C250   C     0.04234   0.35149   0.44573   0.00000  Uiso   1.00
C251   C     0.20163   0.54967   0.29618   0.00000  Uiso   1.00
C252   C     0.23261   0.58254   0.33871   0.00000  Uiso   1.00
C253   C     0.28730   0.54948   0.29424   0.00000  Uiso   1.00
H254   H     0.20092   0.40983   0.11276   0.00000  Uiso   1.00
H255   H     0.18362   0.54016   0.00549   0.00000  Uiso   1.00
H256   H     0.12872   0.26782   0.20664   0.00000  Uiso   1.00
H257   H     0.29678   0.40367   0.10270   0.00000  Uiso   1.00
H258   H     0.15435   0.71271   0.92361   0.00000  Uiso   1.00
H259   H     0.03861   0.13843   0.34775   0.00000  Uiso   1.00
H260   H     0.39300   0.42489   0.12857   0.00000  Uiso   1.00
H261   H     0.12332   0.62608   0.39810   0.00000  Uiso   1.00
H262   H     0.10176   0.76829   0.30648   0.00000  Uiso   1.00
H263   H     0.04687   0.49593   0.50763   0.00000  Uiso   1.00
H264   H     0.21492   0.63178   0.40369   0.00000  Uiso   1.00
H265   H     0.08791   0.89786   0.16790   0.00000  Uiso   1.00
H266   H     0.97218   0.32358   0.59205   0.00000  Uiso   1.00
H267   H     0.32656   0.61004   0.37287   0.00000  Uiso   1.00
O268   O     0.10833   0.89492   0.98035   0.00000  Uiso   1.00
O269   O     0.95650   0.14148   0.53681   0.00000  Uiso   1.00
O270   O     0.42144   0.51731   0.24925   0.00000  Uiso   1.00
N271   N     0.14168   0.73678   0.99367   0.00000  Uiso   1.00
N272   N     0.03347   0.19987   0.39021   0.00000  Uiso   1.00
N273   N     0.36478   0.46766   0.18532   0.00000  Uiso   1.00
N274   N     0.10593   0.83641   0.12512   0.00000  Uiso   1.00
N275   N     0.99772   0.29950   0.52166   0.00000  Uiso   1.00
N276   N     0.32903   0.56729   0.31677   0.00000  Uiso   1.00
C277   C     0.31686   0.95938   0.32187   0.00000  Uiso   1.00
C278   C     0.33701   0.06018   0.34059   0.00000  Uiso   1.00
C279   C     0.33405   0.08944   0.42954   0.00000  Uiso   1.00
C280   C     0.35476   0.18470   0.43157   0.00000  Uiso   1.00
C281   C     0.38261   0.33152   0.47339   0.00000  Uiso   1.00
C282   C     0.36685   0.91221   0.23130   0.00000  Uiso   1.00
C283   C     0.38896   0.81705   0.22837   0.00000  Uiso   1.00
C284   C     0.43478   0.78774   0.13839   0.00000  Uiso   1.00
C285   C     0.50891   0.70480   0.01052   0.00000  Uiso   1.00
C286   C     0.27553   0.98603   0.28778   0.00000  Uiso   1.00
C287   C     0.22088   0.95291   0.33232   0.00000  Uiso   1.00
C288   C     0.18982   0.98573   0.28988   0.00000  Uiso   1.00
C289   C     0.12218   0.01741   0.24970   0.00000  Uiso   1.00
C290   C     0.35890   0.07654   0.16728   0.00000  Uiso   1.00
C291   C     0.35985   0.12382   0.25662   0.00000  Uiso   1.00
C292   C     0.38057   0.21906   0.25851   0.00000  Uiso   1.00
C293   C     0.37764   0.24845   0.34746   0.00000  Uiso   1.00
C294   C     0.38968   0.97584   0.14733   0.00000  Uiso   1.00
C295   C     0.43547   0.94667   0.05733   0.00000  Uiso   1.00
C296   C     0.45766   0.85149   0.05427   0.00000  Uiso   1.00
C297   C     0.29837   0.04967   0.20382   0.00000  Uiso   1.00
C298   C     0.26739   0.08254   0.16129   0.00000  Uiso   1.00
C299   C     0.21270   0.04948   0.20576   0.00000  Uiso   1.00
H300   H     0.29908   0.90983   0.38724   0.00000  Uiso   1.00
H301   H     0.31638   0.04016   0.49451   0.00000  Uiso   1.00
H302   H     0.37128   0.76782   0.29336   0.00000  Uiso   1.00
H303   H     0.20322   0.90367   0.39730   0.00000  Uiso   1.00
H304   H     0.34565   0.21271   0.57639   0.00000  Uiso   1.00
H305   H     0.46139   0.63843   0.15225   0.00000  Uiso   1.00
H306   H     0.10700   0.92489   0.37143   0.00000  Uiso   1.00
H307   H     0.37668   0.12608   0.10190   0.00000  Uiso   1.00
H308   H     0.39824   0.26829   0.19352   0.00000  Uiso   1.00
H309   H     0.45313   0.99593   0.99237   0.00000  Uiso   1.00
H310   H     0.28508   0.13178   0.09631   0.00000  Uiso   1.00
H311   H     0.41209   0.39786   0.33210   0.00000  Uiso   1.00
H312   H     0.52782   0.82358   0.90795   0.00000  Uiso   1.00
H313   H     0.17344   0.11004   0.12713   0.00000  Uiso   1.00
O314   O     0.39167   0.39492   0.51965   0.00000  Uiso   1.00
O315   O     0.54350   0.64148   0.96319   0.00000  Uiso   1.00
O316   O     0.07856   0.01731   0.25075   0.00000  Uiso   1.00
N317   N     0.35832   0.23678   0.50633   0.00000  Uiso   1.00
N318   N     0.46653   0.69987   0.10979   0.00000  Uiso   1.00
N319   N     0.13522   0.96766   0.31468   0.00000  Uiso   1.00
N320   N     0.39407   0.33641   0.37488   0.00000  Uiso   1.00
N321   N     0.50228   0.79950   0.97834   0.00000  Uiso   1.00
N322   N     0.17097   0.06729   0.18323   0.00000  Uiso   1.00
C323   C     0.81686   0.45938   0.32187   0.00000  Uiso   1.00
C324   C     0.83701   0.56018   0.34059   0.00000  Uiso   1.00
C325   C     0.83405   0.58944   0.42954   0.00000  Uiso   1.00
C326   C     0.85476   0.68470   0.43157   0.00000  Uiso   1.00
C327   C     0.88261   0.83152   0.47339   0.00000  Uiso   1.00
C328   C     0.86685   0.41221   0.23130   0.00000  Uiso   1.00
C329   C     0.88896   0.31705   0.22837   0.00000  Uiso   1.00
C330   C     0.93478   0.28774   0.13839   0.00000  Uiso   1.00
C331   C     0.00891   0.20480   0.01052   0.00000  Uiso   1.00
C332   C     0.77553   0.48603   0.28778   0.00000  Uiso   1.00
C333   C     0.72088   0.45291   0.33232   0.00000  Uiso   1.00
C334   C     0.68982   0.48573   0.28988   0.00000  Uiso   1.00
C335   C     0.62218   0.51741   0.24970   0.00000  Uiso   1.00
C336   C     0.85890   0.57654   0.16728   0.00000  Uiso   1.00
C337   C     0.85985   0.62382   0.25662   0.00000  Uiso   1.00
C338   C     0.88057   0.71906   0.25851   0.00000  Uiso   1.00
C339   C     0.87764   0.74845   0.34746   0.00000  Uiso   1.00
C340   C     0.88968   0.47584   0.14733   0.00000  Uiso   1.00
C341   C     0.93547   0.44667   0.05733   0.00000  Uiso   1.00
C342   C     0.95766   0.35149   0.05427   0.00000  Uiso   1.00
C343   C     0.79837   0.54967   0.20382   0.00000  Uiso   1.00
C344   C     0.76739   0.58254   0.16129   0.00000  Uiso   1.00
C345   C     0.71270   0.54948   0.20576   0.00000  Uiso   1.00
H346   H     0.79908   0.40983   0.38724   0.00000  Uiso   1.00
H347   H     0.81638   0.54016   0.49451   0.00000  Uiso   1.00
H348   H     0.87128   0.26782   0.29336   0.00000  Uiso   1.00
H349   H     0.70322   0.40367   0.39730   0.00000  Uiso   1.00
H350   H     0.84565   0.71271   0.57639   0.00000  Uiso   1.00
H351   H     0.96139   0.13843   0.15225   0.00000  Uiso   1.00
H352   H     0.60700   0.42489   0.37143   0.00000  Uiso   1.00
H353   H     0.87668   0.62608   0.10190   0.00000  Uiso   1.00
H354   H     0.89824   0.76829   0.19352   0.00000  Uiso   1.00
H355   H     0.95313   0.49593   0.99237   0.00000  Uiso   1.00
H356   H     0.78508   0.63178   0.09631   0.00000  Uiso   1.00
H357   H     0.91209   0.89786   0.33210   0.00000  Uiso   1.00
H358   H     0.02782   0.32358   0.90795   0.00000  Uiso   1.00
H359   H     0.67344   0.61004   0.12713   0.00000  Uiso   1.00
O360   O     0.89167   0.89492   0.51965   0.00000  Uiso   1.00
O361   O     0.04350   0.14148   0.96319   0.00000  Uiso   1.00
O362   O     0.57856   0.51731   0.25075   0.00000  Uiso   1.00
N363   N     0.85832   0.73678   0.50633   0.00000  Uiso   1.00
N364   N     0.96653   0.19987   0.10979   0.00000  Uiso   1.00
N365   N     0.63522   0.46766   0.31468   0.00000  Uiso   1.00
N366   N     0.89407   0.83641   0.37488   0.00000  Uiso   1.00
N367   N     0.00228   0.29950   0.97834   0.00000  Uiso   1.00
N368   N     0.67097   0.56729   0.18323   0.00000  Uiso   1.00
