data_job_03514
_audit_creation_date              2018-12-19
_audit_creation_method            'Materials Studio'
_symmetry_space_group_name_H-M    'P1'
_symmetry_Int_Tables_number       1
_symmetry_cell_setting            triclinic
loop_
_symmetry_equiv_pos_as_xyz
  x,y,z
_cell_length_a                    26.0855
_cell_length_b                    9.4557
_cell_length_c                    36.4250
_cell_angle_alpha                 90.0000
_cell_angle_beta                  141.9138
_cell_angle_gamma                 90.0000
loop_
_atom_site_label
_atom_site_type_symbol
_atom_site_fract_x
_atom_site_fract_y
_atom_site_fract_z
_atom_site_U_iso_or_equiv
_atom_site_adp_type
_atom_site_occupancy
C1     C     0.31011   0.91162   0.29251   0.00000  Uiso   1.00
C2     C     0.34394   0.81640   0.28128   0.00000  Uiso   1.00
C3     C     0.30878   0.79777   0.22701   0.00000  Uiso   1.00
C4     C     0.34918   0.70608   0.22595   0.00000  Uiso   1.00
C5     C     0.39059   0.56890   0.20068   0.00000  Uiso   1.00
C6     C     0.29797   0.81672   0.31909   0.00000  Uiso   1.00
C7     C     0.22416   0.79837   0.29662   0.00000  Uiso   1.00
C8     C     0.22586   0.70695   0.32740   0.00000  Uiso   1.00
C9     C     0.19591   0.57034   0.36086   0.00000  Uiso   1.00
C10    C     0.38042   0.01283   0.34202   0.00000  Uiso   1.00
C11    C     0.37594   0.15938   0.33883   0.00000  Uiso   1.00
C12    C     0.44706   0.23308   0.38892   0.00000  Uiso   1.00
C13    C     0.54514   0.40096   0.45797   0.00000  Uiso   1.00
C14    C     0.44437   0.78191   0.38714   0.00000  Uiso   1.00
C15    C     0.41686   0.74595   0.33268   0.00000  Uiso   1.00
C16    C     0.45733   0.65426   0.33170   0.00000  Uiso   1.00
C17    C     0.42224   0.63550   0.27744   0.00000  Uiso   1.00
C18    C     0.37089   0.74626   0.37049   0.00000  Uiso   1.00
C19    C     0.37270   0.65486   0.40131   0.00000  Uiso   1.00
C20    C     0.29891   0.63637   0.37889   0.00000  Uiso   1.00
C21    C     0.45335   0.94238   0.39341   0.00000  Uiso   1.00
C22    C     0.52449   0.01587   0.44352   0.00000  Uiso   1.00
C23    C     0.52012   0.16250   0.44040   0.00000  Uiso   1.00
H24    H     0.25333   0.96646   0.25250   0.00000  Uiso   1.00
H25    H     0.25234   0.85230   0.18724   0.00000  Uiso   1.00
H26    H     0.16774   0.85291   0.25685   0.00000  Uiso   1.00
H27    H     0.31950   0.21386   0.29905   0.00000  Uiso   1.00
H28    H     0.28339   0.69463   0.13755   0.00000  Uiso   1.00
H29    H     0.10500   0.69595   0.28433   0.00000  Uiso   1.00
H30    H     0.42501   0.45709   0.37332   0.00000  Uiso   1.00
H31    H     0.50115   0.72705   0.42715   0.00000  Uiso   1.00
H32    H     0.51376   0.59976   0.37148   0.00000  Uiso   1.00
H33    H     0.42915   0.60036   0.44108   0.00000  Uiso   1.00
H34    H     0.58091   0.96131   0.48328   0.00000  Uiso   1.00
H35    H     0.49556   0.48964   0.28708   0.00000  Uiso   1.00
H36    H     0.31717   0.49097   0.43386   0.00000  Uiso   1.00
H37    H     0.63719   0.25210   0.52285   0.00000  Uiso   1.00
O38    O     0.39328   0.51268   0.17254   0.00000  Uiso   1.00
O39    O     0.15924   0.51444   0.36511   0.00000  Uiso   1.00
O40    O     0.57910   0.51303   0.48186   0.00000  Uiso   1.00
N41    N     0.33160   0.66388   0.18039   0.00000  Uiso   1.00
N42    N     0.16481   0.66510   0.31761   0.00000  Uiso   1.00
N43    N     0.46400   0.37670   0.40081   0.00000  Uiso   1.00
N44    N     0.44577   0.55358   0.26085   0.00000  Uiso   1.00
N45    N     0.27898   0.55480   0.39807   0.00000  Uiso   1.00
N46    N     0.57816   0.26640   0.48127   0.00000  Uiso   1.00
C47    C     0.81011   0.41162   0.29251   0.00000  Uiso   1.00
C48    C     0.84394   0.31640   0.28128   0.00000  Uiso   1.00
C49    C     0.80878   0.29777   0.22701   0.00000  Uiso   1.00
C50    C     0.84918   0.20608   0.22595   0.00000  Uiso   1.00
C51    C     0.89059   0.06890   0.20068   0.00000  Uiso   1.00
C52    C     0.79797   0.31672   0.31909   0.00000  Uiso   1.00
C53    C     0.72416   0.29837   0.29662   0.00000  Uiso   1.00
C54    C     0.72586   0.20695   0.32740   0.00000  Uiso   1.00
C55    C     0.69591   0.07034   0.36086   0.00000  Uiso   1.00
C56    C     0.88042   0.51283   0.34202   0.00000  Uiso   1.00
C57    C     0.87594   0.65938   0.33883   0.00000  Uiso   1.00
C58    C     0.94706   0.73308   0.38892   0.00000  Uiso   1.00
C59    C     0.04514   0.90096   0.45797   0.00000  Uiso   1.00
C60    C     0.94437   0.28191   0.38714   0.00000  Uiso   1.00
C61    C     0.91686   0.24595   0.33268   0.00000  Uiso   1.00
C62    C     0.95733   0.15426   0.33170   0.00000  Uiso   1.00
C63    C     0.92224   0.13550   0.27744   0.00000  Uiso   1.00
C64    C     0.87089   0.24626   0.37049   0.00000  Uiso   1.00
C65    C     0.87270   0.15486   0.40131   0.00000  Uiso   1.00
C66    C     0.79891   0.13637   0.37889   0.00000  Uiso   1.00
C67    C     0.95335   0.44238   0.39341   0.00000  Uiso   1.00
C68    C     0.02449   0.51587   0.44352   0.00000  Uiso   1.00
C69    C     0.02012   0.66250   0.44040   0.00000  Uiso   1.00
H70    H     0.75333   0.46646   0.25250   0.00000  Uiso   1.00
H71    H     0.75234   0.35230   0.18724   0.00000  Uiso   1.00
H72    H     0.66774   0.35291   0.25685   0.00000  Uiso   1.00
H73    H     0.81950   0.71386   0.29905   0.00000  Uiso   1.00
H74    H     0.78339   0.19463   0.13755   0.00000  Uiso   1.00
H75    H     0.60500   0.19595   0.28433   0.00000  Uiso   1.00
H76    H     0.92501   0.95709   0.37332   0.00000  Uiso   1.00
H77    H     0.00115   0.22705   0.42715   0.00000  Uiso   1.00
H78    H     0.01376   0.09976   0.37148   0.00000  Uiso   1.00
H79    H     0.92915   0.10036   0.44108   0.00000  Uiso   1.00
H80    H     0.08091   0.46131   0.48328   0.00000  Uiso   1.00
H81    H     0.99556   0.98964   0.28708   0.00000  Uiso   1.00
H82    H     0.81717   0.99097   0.43386   0.00000  Uiso   1.00
H83    H     0.13719   0.75210   0.52285   0.00000  Uiso   1.00
O84    O     0.89328   0.01268   0.17254   0.00000  Uiso   1.00
O85    O     0.65924   0.01444   0.36511   0.00000  Uiso   1.00
O86    O     0.07910   0.01303   0.48186   0.00000  Uiso   1.00
N87    N     0.83160   0.16388   0.18039   0.00000  Uiso   1.00
N88    N     0.66481   0.16510   0.31761   0.00000  Uiso   1.00
N89    N     0.96400   0.87670   0.40081   0.00000  Uiso   1.00
N90    N     0.94577   0.05358   0.26085   0.00000  Uiso   1.00
N91    N     0.77898   0.05480   0.39807   0.00000  Uiso   1.00
N92    N     0.07816   0.76640   0.48127   0.00000  Uiso   1.00
C93    C     0.68989   0.91162   0.20749   0.00000  Uiso   1.00
C94    C     0.65606   0.81640   0.21872   0.00000  Uiso   1.00
C95    C     0.69122   0.79777   0.27299   0.00000  Uiso   1.00
C96    C     0.65082   0.70608   0.27405   0.00000  Uiso   1.00
C97    C     0.60941   0.56890   0.29932   0.00000  Uiso   1.00
C98    C     0.70203   0.81672   0.18091   0.00000  Uiso   1.00
C99    C     0.77584   0.79837   0.20338   0.00000  Uiso   1.00
C100   C     0.77414   0.70695   0.17260   0.00000  Uiso   1.00
C101   C     0.80409   0.57034   0.13914   0.00000  Uiso   1.00
C102   C     0.61958   0.01283   0.15798   0.00000  Uiso   1.00
C103   C     0.62406   0.15938   0.16117   0.00000  Uiso   1.00
C104   C     0.55294   0.23308   0.11108   0.00000  Uiso   1.00
C105   C     0.45486   0.40096   0.04203   0.00000  Uiso   1.00
C106   C     0.55563   0.78191   0.11286   0.00000  Uiso   1.00
C107   C     0.58314   0.74595   0.16732   0.00000  Uiso   1.00
C108   C     0.54267   0.65426   0.16830   0.00000  Uiso   1.00
C109   C     0.57776   0.63550   0.22256   0.00000  Uiso   1.00
C110   C     0.62911   0.74626   0.12951   0.00000  Uiso   1.00
C111   C     0.62730   0.65486   0.09869   0.00000  Uiso   1.00
C112   C     0.70109   0.63637   0.12111   0.00000  Uiso   1.00
C113   C     0.54665   0.94238   0.10659   0.00000  Uiso   1.00
C114   C     0.47551   0.01587   0.05648   0.00000  Uiso   1.00
C115   C     0.47988   0.16250   0.05960   0.00000  Uiso   1.00
H116   H     0.74667   0.96646   0.24750   0.00000  Uiso   1.00
H117   H     0.74766   0.85230   0.31276   0.00000  Uiso   1.00
H118   H     0.83226   0.85291   0.24315   0.00000  Uiso   1.00
H119   H     0.68050   0.21386   0.20095   0.00000  Uiso   1.00
H120   H     0.71661   0.69463   0.36245   0.00000  Uiso   1.00
H121   H     0.89500   0.69595   0.21567   0.00000  Uiso   1.00
H122   H     0.57499   0.45709   0.12668   0.00000  Uiso   1.00
H123   H     0.49885   0.72705   0.07285   0.00000  Uiso   1.00
H124   H     0.48624   0.59976   0.12852   0.00000  Uiso   1.00
H125   H     0.57085   0.60036   0.05892   0.00000  Uiso   1.00
H126   H     0.41909   0.96131   0.01672   0.00000  Uiso   1.00
H127   H     0.50444   0.48964   0.21292   0.00000  Uiso   1.00
H128   H     0.68283   0.49097   0.06614   0.00000  Uiso   1.00
H129   H     0.36281   0.25210   0.97715   0.00000  Uiso   1.00
O130   O     0.60672   0.51268   0.32746   0.00000  Uiso   1.00
O131   O     0.84076   0.51444   0.13489   0.00000  Uiso   1.00
O132   O     0.42090   0.51303   0.01814   0.00000  Uiso   1.00
N133   N     0.66840   0.66388   0.31961   0.00000  Uiso   1.00
N134   N     0.83519   0.66510   0.18239   0.00000  Uiso   1.00
N135   N     0.53600   0.37670   0.09919   0.00000  Uiso   1.00
N136   N     0.55423   0.55358   0.23915   0.00000  Uiso   1.00
N137   N     0.72102   0.55480   0.10193   0.00000  Uiso   1.00
N138   N     0.42184   0.26640   0.01873   0.00000  Uiso   1.00
C139   C     0.18989   0.41162   0.20749   0.00000  Uiso   1.00
C140   C     0.15606   0.31640   0.21872   0.00000  Uiso   1.00
C141   C     0.19122   0.29777   0.27299   0.00000  Uiso   1.00
C142   C     0.15082   0.20608   0.27405   0.00000  Uiso   1.00
C143   C     0.10941   0.06890   0.29932   0.00000  Uiso   1.00
C144   C     0.20203   0.31672   0.18091   0.00000  Uiso   1.00
C145   C     0.27584   0.29837   0.20338   0.00000  Uiso   1.00
C146   C     0.27414   0.20695   0.17260   0.00000  Uiso   1.00
C147   C     0.30409   0.07034   0.13914   0.00000  Uiso   1.00
C148   C     0.11958   0.51283   0.15798   0.00000  Uiso   1.00
C149   C     0.12406   0.65938   0.16117   0.00000  Uiso   1.00
C150   C     0.05294   0.73308   0.11108   0.00000  Uiso   1.00
C151   C     0.95486   0.90096   0.04203   0.00000  Uiso   1.00
C152   C     0.05563   0.28191   0.11286   0.00000  Uiso   1.00
C153   C     0.08314   0.24595   0.16732   0.00000  Uiso   1.00
C154   C     0.04267   0.15426   0.16830   0.00000  Uiso   1.00
C155   C     0.07776   0.13550   0.22256   0.00000  Uiso   1.00
C156   C     0.12911   0.24626   0.12951   0.00000  Uiso   1.00
C157   C     0.12730   0.15486   0.09869   0.00000  Uiso   1.00
C158   C     0.20109   0.13637   0.12111   0.00000  Uiso   1.00
C159   C     0.04665   0.44238   0.10659   0.00000  Uiso   1.00
C160   C     0.97551   0.51587   0.05648   0.00000  Uiso   1.00
C161   C     0.97988   0.66250   0.05960   0.00000  Uiso   1.00
H162   H     0.24667   0.46646   0.24750   0.00000  Uiso   1.00
H163   H     0.24766   0.35230   0.31276   0.00000  Uiso   1.00
H164   H     0.33226   0.35291   0.24315   0.00000  Uiso   1.00
H165   H     0.18050   0.71386   0.20095   0.00000  Uiso   1.00
H166   H     0.21661   0.19463   0.36245   0.00000  Uiso   1.00
H167   H     0.39500   0.19595   0.21567   0.00000  Uiso   1.00
H168   H     0.07499   0.95709   0.12668   0.00000  Uiso   1.00
H169   H     0.99885   0.22705   0.07285   0.00000  Uiso   1.00
H170   H     0.98624   0.09976   0.12852   0.00000  Uiso   1.00
H171   H     0.07085   0.10036   0.05892   0.00000  Uiso   1.00
H172   H     0.91909   0.46131   0.01672   0.00000  Uiso   1.00
H173   H     0.00444   0.98964   0.21292   0.00000  Uiso   1.00
H174   H     0.18283   0.99097   0.06614   0.00000  Uiso   1.00
H175   H     0.86281   0.75210   0.97715   0.00000  Uiso   1.00
O176   O     0.10672   0.01268   0.32746   0.00000  Uiso   1.00
O177   O     0.34076   0.01444   0.13489   0.00000  Uiso   1.00
O178   O     0.92090   0.01303   0.01814   0.00000  Uiso   1.00
N179   N     0.16840   0.16388   0.31961   0.00000  Uiso   1.00
N180   N     0.33519   0.16510   0.18239   0.00000  Uiso   1.00
N181   N     0.03600   0.87670   0.09919   0.00000  Uiso   1.00
N182   N     0.05423   0.05358   0.23915   0.00000  Uiso   1.00
N183   N     0.22102   0.05480   0.10193   0.00000  Uiso   1.00
N184   N     0.92184   0.76640   0.01873   0.00000  Uiso   1.00
C185   C     0.68989   0.08838   0.70749   0.00000  Uiso   1.00
C186   C     0.65606   0.18360   0.71872   0.00000  Uiso   1.00
C187   C     0.69122   0.20223   0.77299   0.00000  Uiso   1.00
C188   C     0.65082   0.29392   0.77405   0.00000  Uiso   1.00
C189   C     0.60941   0.43110   0.79932   0.00000  Uiso   1.00
C190   C     0.70203   0.18328   0.68091   0.00000  Uiso   1.00
C191   C     0.77584   0.20163   0.70338   0.00000  Uiso   1.00
C192   C     0.77414   0.29305   0.67260   0.00000  Uiso   1.00
C193   C     0.80409   0.42966   0.63914   0.00000  Uiso   1.00
C194   C     0.61958   0.98717   0.65798   0.00000  Uiso   1.00
C195   C     0.62406   0.84062   0.66117   0.00000  Uiso   1.00
C196   C     0.55294   0.76692   0.61108   0.00000  Uiso   1.00
C197   C     0.45486   0.59904   0.54203   0.00000  Uiso   1.00
C198   C     0.55563   0.21809   0.61286   0.00000  Uiso   1.00
C199   C     0.58314   0.25405   0.66732   0.00000  Uiso   1.00
C200   C     0.54267   0.34574   0.66830   0.00000  Uiso   1.00
C201   C     0.57776   0.36450   0.72256   0.00000  Uiso   1.00
C202   C     0.62911   0.25374   0.62951   0.00000  Uiso   1.00
C203   C     0.62730   0.34514   0.59869   0.00000  Uiso   1.00
C204   C     0.70109   0.36363   0.62111   0.00000  Uiso   1.00
C205   C     0.54665   0.05762   0.60659   0.00000  Uiso   1.00
C206   C     0.47551   0.98413   0.55648   0.00000  Uiso   1.00
C207   C     0.47988   0.83750   0.55960   0.00000  Uiso   1.00
H208   H     0.74667   0.03354   0.74750   0.00000  Uiso   1.00
H209   H     0.74766   0.14770   0.81276   0.00000  Uiso   1.00
H210   H     0.83226   0.14709   0.74315   0.00000  Uiso   1.00
H211   H     0.68050   0.78614   0.70095   0.00000  Uiso   1.00
H212   H     0.71661   0.30537   0.86245   0.00000  Uiso   1.00
H213   H     0.89500   0.30405   0.71567   0.00000  Uiso   1.00
H214   H     0.57499   0.54291   0.62668   0.00000  Uiso   1.00
H215   H     0.49885   0.27295   0.57285   0.00000  Uiso   1.00
H216   H     0.48624   0.40024   0.62852   0.00000  Uiso   1.00
H217   H     0.57085   0.39964   0.55892   0.00000  Uiso   1.00
H218   H     0.41909   0.03869   0.51672   0.00000  Uiso   1.00
H219   H     0.50444   0.51036   0.71292   0.00000  Uiso   1.00
H220   H     0.68283   0.50903   0.56614   0.00000  Uiso   1.00
H221   H     0.36281   0.74790   0.47715   0.00000  Uiso   1.00
O222   O     0.60672   0.48732   0.82746   0.00000  Uiso   1.00
O223   O     0.84076   0.48556   0.63489   0.00000  Uiso   1.00
O224   O     0.42090   0.48697   0.51814   0.00000  Uiso   1.00
N225   N     0.66840   0.33612   0.81961   0.00000  Uiso   1.00
N226   N     0.83519   0.33490   0.68239   0.00000  Uiso   1.00
N227   N     0.53600   0.62330   0.59919   0.00000  Uiso   1.00
N228   N     0.55423   0.44642   0.73915   0.00000  Uiso   1.00
N229   N     0.72102   0.44520   0.60193   0.00000  Uiso   1.00
N230   N     0.42184   0.73360   0.51873   0.00000  Uiso   1.00
C231   C     0.18989   0.58838   0.70749   0.00000  Uiso   1.00
C232   C     0.15606   0.68360   0.71872   0.00000  Uiso   1.00
C233   C     0.19122   0.70223   0.77299   0.00000  Uiso   1.00
C234   C     0.15082   0.79392   0.77405   0.00000  Uiso   1.00
C235   C     0.10941   0.93110   0.79932   0.00000  Uiso   1.00
C236   C     0.20203   0.68328   0.68091   0.00000  Uiso   1.00
C237   C     0.27584   0.70163   0.70338   0.00000  Uiso   1.00
C238   C     0.27414   0.79305   0.67260   0.00000  Uiso   1.00
C239   C     0.30409   0.92966   0.63914   0.00000  Uiso   1.00
C240   C     0.11958   0.48717   0.65798   0.00000  Uiso   1.00
C241   C     0.12406   0.34062   0.66117   0.00000  Uiso   1.00
C242   C     0.05294   0.26692   0.61108   0.00000  Uiso   1.00
C243   C     0.95486   0.09904   0.54203   0.00000  Uiso   1.00
C244   C     0.05563   0.71809   0.61286   0.00000  Uiso   1.00
C245   C     0.08314   0.75405   0.66732   0.00000  Uiso   1.00
C246   C     0.04267   0.84574   0.66830   0.00000  Uiso   1.00
C247   C     0.07776   0.86450   0.72256   0.00000  Uiso   1.00
C248   C     0.12911   0.75374   0.62951   0.00000  Uiso   1.00
C249   C     0.12730   0.84514   0.59869   0.00000  Uiso   1.00
C250   C     0.20109   0.86363   0.62111   0.00000  Uiso   1.00
C251   C     0.04665   0.55762   0.60659   0.00000  Uiso   1.00
C252   C     0.97551   0.48413   0.55648   0.00000  Uiso   1.00
C253   C     0.97988   0.33750   0.55960   0.00000  Uiso   1.00
H254   H     0.24667   0.53354   0.74750   0.00000  Uiso   1.00
H255   H     0.24766   0.64770   0.81276   0.00000  Uiso   1.00
H256   H     0.33226   0.64709   0.74315   0.00000  Uiso   1.00
H257   H     0.18050   0.28614   0.70095   0.00000  Uiso   1.00
H258   H     0.21661   0.80537   0.86245   0.00000  Uiso   1.00
H259   H     0.39500   0.80405   0.71567   0.00000  Uiso   1.00
H260   H     0.07499   0.04291   0.62668   0.00000  Uiso   1.00
H261   H     0.99885   0.77295   0.57285   0.00000  Uiso   1.00
H262   H     0.98624   0.90024   0.62852   0.00000  Uiso   1.00
H263   H     0.07085   0.89964   0.55892   0.00000  Uiso   1.00
H264   H     0.91909   0.53869   0.51672   0.00000  Uiso   1.00
H265   H     0.00444   0.01036   0.71292   0.00000  Uiso   1.00
H266   H     0.18283   0.00903   0.56614   0.00000  Uiso   1.00
H267   H     0.86281   0.24790   0.47715   0.00000  Uiso   1.00
O268   O     0.10672   0.98732   0.82746   0.00000  Uiso   1.00
O269   O     0.34076   0.98556   0.63489   0.00000  Uiso   1.00
O270   O     0.92090   0.98697   0.51814   0.00000  Uiso   1.00
N271   N     0.16840   0.83612   0.81961   0.00000  Uiso   1.00
N272   N     0.33519   0.83490   0.68239   0.00000  Uiso   1.00
N273   N     0.03600   0.12330   0.59919   0.00000  Uiso   1.00
N274   N     0.05423   0.94642   0.73915   0.00000  Uiso   1.00
N275   N     0.22102   0.94520   0.60193   0.00000  Uiso   1.00
N276   N     0.92184   0.23360   0.51873   0.00000  Uiso   1.00
C277   C     0.31011   0.08838   0.79251   0.00000  Uiso   1.00
C278   C     0.34394   0.18360   0.78128   0.00000  Uiso   1.00
C279   C     0.30878   0.20223   0.72701   0.00000  Uiso   1.00
C280   C     0.34918   0.29392   0.72595   0.00000  Uiso   1.00
C281   C     0.39059   0.43110   0.70068   0.00000  Uiso   1.00
C282   C     0.29797   0.18328   0.81909   0.00000  Uiso   1.00
C283   C     0.22416   0.20163   0.79662   0.00000  Uiso   1.00
C284   C     0.22586   0.29305   0.82740   0.00000  Uiso   1.00
C285   C     0.19591   0.42966   0.86086   0.00000  Uiso   1.00
C286   C     0.38042   0.98717   0.84202   0.00000  Uiso   1.00
C287   C     0.37594   0.84062   0.83883   0.00000  Uiso   1.00
C288   C     0.44706   0.76692   0.88892   0.00000  Uiso   1.00
C289   C     0.54514   0.59904   0.95797   0.00000  Uiso   1.00
C290   C     0.44437   0.21809   0.88714   0.00000  Uiso   1.00
C291   C     0.41686   0.25405   0.83268   0.00000  Uiso   1.00
C292   C     0.45733   0.34574   0.83170   0.00000  Uiso   1.00
C293   C     0.42224   0.36450   0.77744   0.00000  Uiso   1.00
C294   C     0.37089   0.25374   0.87049   0.00000  Uiso   1.00
C295   C     0.37270   0.34514   0.90131   0.00000  Uiso   1.00
C296   C     0.29891   0.36363   0.87889   0.00000  Uiso   1.00
C297   C     0.45335   0.05762   0.89341   0.00000  Uiso   1.00
C298   C     0.52449   0.98413   0.94352   0.00000  Uiso   1.00
C299   C     0.52012   0.83750   0.94040   0.00000  Uiso   1.00
H300   H     0.25333   0.03354   0.75250   0.00000  Uiso   1.00
H301   H     0.25234   0.14770   0.68724   0.00000  Uiso   1.00
H302   H     0.16774   0.14709   0.75685   0.00000  Uiso   1.00
H303   H     0.31950   0.78614   0.79905   0.00000  Uiso   1.00
H304   H     0.28339   0.30537   0.63755   0.00000  Uiso   1.00
H305   H     0.10500   0.30405   0.78433   0.00000  Uiso   1.00
H306   H     0.42501   0.54291   0.87332   0.00000  Uiso   1.00
H307   H     0.50115   0.27295   0.92715   0.00000  Uiso   1.00
H308   H     0.51376   0.40024   0.87148   0.00000  Uiso   1.00
H309   H     0.42915   0.39964   0.94108   0.00000  Uiso   1.00
H310   H     0.58091   0.03869   0.98328   0.00000  Uiso   1.00
H311   H     0.49556   0.51036   0.78708   0.00000  Uiso   1.00
H312   H     0.31717   0.50903   0.93386   0.00000  Uiso   1.00
H313   H     0.63719   0.74790   0.02285   0.00000  Uiso   1.00
O314   O     0.39328   0.48732   0.67254   0.00000  Uiso   1.00
O315   O     0.15924   0.48556   0.86511   0.00000  Uiso   1.00
O316   O     0.57910   0.48697   0.98186   0.00000  Uiso   1.00
N317   N     0.33160   0.33612   0.68039   0.00000  Uiso   1.00
N318   N     0.16481   0.33490   0.81761   0.00000  Uiso   1.00
N319   N     0.46400   0.62330   0.90081   0.00000  Uiso   1.00
N320   N     0.44577   0.44642   0.76085   0.00000  Uiso   1.00
N321   N     0.27898   0.44520   0.89807   0.00000  Uiso   1.00
N322   N     0.57816   0.73360   0.98127   0.00000  Uiso   1.00
C323   C     0.81011   0.58838   0.79251   0.00000  Uiso   1.00
C324   C     0.84394   0.68360   0.78128   0.00000  Uiso   1.00
C325   C     0.80878   0.70223   0.72701   0.00000  Uiso   1.00
C326   C     0.84918   0.79392   0.72595   0.00000  Uiso   1.00
C327   C     0.89059   0.93110   0.70068   0.00000  Uiso   1.00
C328   C     0.79797   0.68328   0.81909   0.00000  Uiso   1.00
C329   C     0.72416   0.70163   0.79662   0.00000  Uiso   1.00
C330   C     0.72586   0.79305   0.82740   0.00000  Uiso   1.00
C331   C     0.69591   0.92966   0.86086   0.00000  Uiso   1.00
C332   C     0.88042   0.48717   0.84202   0.00000  Uiso   1.00
C333   C     0.87594   0.34062   0.83883   0.00000  Uiso   1.00
C334   C     0.94706   0.26692   0.88892   0.00000  Uiso   1.00
C335   C     0.04514   0.09904   0.95797   0.00000  Uiso   1.00
C336   C     0.94437   0.71809   0.88714   0.00000  Uiso   1.00
C337   C     0.91686   0.75405   0.83268   0.00000  Uiso   1.00
C338   C     0.95733   0.84574   0.83170   0.00000  Uiso   1.00
C339   C     0.92224   0.86450   0.77744   0.00000  Uiso   1.00
C340   C     0.87089   0.75374   0.87049   0.00000  Uiso   1.00
C341   C     0.87270   0.84514   0.90131   0.00000  Uiso   1.00
C342   C     0.79891   0.86363   0.87889   0.00000  Uiso   1.00
C343   C     0.95335   0.55762   0.89341   0.00000  Uiso   1.00
C344   C     0.02449   0.48413   0.94352   0.00000  Uiso   1.00
C345   C     0.02012   0.33750   0.94040   0.00000  Uiso   1.00
H346   H     0.75333   0.53354   0.75250   0.00000  Uiso   1.00
H347   H     0.75234   0.64770   0.68724   0.00000  Uiso   1.00
H348   H     0.66774   0.64709   0.75685   0.00000  Uiso   1.00
H349   H     0.81950   0.28614   0.79905   0.00000  Uiso   1.00
H350   H     0.78339   0.80537   0.63755   0.00000  Uiso   1.00
H351   H     0.60500   0.80405   0.78433   0.00000  Uiso   1.00
H352   H     0.92501   0.04291   0.87332   0.00000  Uiso   1.00
H353   H     0.00115   0.77295   0.92715   0.00000  Uiso   1.00
H354   H     0.01376   0.90024   0.87148   0.00000  Uiso   1.00
H355   H     0.92915   0.89964   0.94108   0.00000  Uiso   1.00
H356   H     0.08091   0.53869   0.98328   0.00000  Uiso   1.00
H357   H     0.99556   0.01036   0.78708   0.00000  Uiso   1.00
H358   H     0.81717   0.00903   0.93386   0.00000  Uiso   1.00
H359   H     0.13719   0.24790   0.02285   0.00000  Uiso   1.00
O360   O     0.89328   0.98732   0.67254   0.00000  Uiso   1.00
O361   O     0.65924   0.98556   0.86511   0.00000  Uiso   1.00
O362   O     0.07910   0.98697   0.98186   0.00000  Uiso   1.00
N363   N     0.83160   0.83612   0.68039   0.00000  Uiso   1.00
N364   N     0.66481   0.83490   0.81761   0.00000  Uiso   1.00
N365   N     0.96400   0.12330   0.90081   0.00000  Uiso   1.00
N366   N     0.94577   0.94642   0.76085   0.00000  Uiso   1.00
N367   N     0.77898   0.94520   0.89807   0.00000  Uiso   1.00
N368   N     0.07816   0.23360   0.98127   0.00000  Uiso   1.00
