data_job_02516
_audit_creation_date              2018-12-19
_audit_creation_method            'Materials Studio'
_symmetry_space_group_name_H-M    'P1'
_symmetry_Int_Tables_number       1
_symmetry_cell_setting            triclinic
loop_
_symmetry_equiv_pos_as_xyz
  x,y,z
_cell_length_a                    24.2407
_cell_length_b                    10.5128
_cell_length_c                    19.8370
_cell_angle_alpha                 90.0000
_cell_angle_beta                  90.0000
_cell_angle_gamma                 90.0000
loop_
_atom_site_label
_atom_site_type_symbol
_atom_site_fract_x
_atom_site_fract_y
_atom_site_fract_z
_atom_site_U_iso_or_equiv
_atom_site_adp_type
_atom_site_occupancy
C1     C     0.86884   0.52974   0.64348   0.00000  Uiso   1.00
C2     C     0.86838   0.61050   0.57963   0.00000  Uiso   1.00
C3     C     0.86699   0.56444   0.51409   0.00000  Uiso   1.00
C4     C     0.86680   0.65380   0.46255   0.00000  Uiso   1.00
C5     C     0.86593   0.75933   0.36134   0.00000  Uiso   1.00
C6     C     0.92005   0.56988   0.68275   0.00000  Uiso   1.00
C7     C     0.96208   0.48965   0.70392   0.00000  Uiso   1.00
C8     C     0.00538   0.54481   0.73920   0.00000  Uiso   1.00
C9     C     0.08471   0.58724   0.79813   0.00000  Uiso   1.00
C10    C     0.81958   0.57372   0.68521   0.00000  Uiso   1.00
C11    C     0.77715   0.49673   0.70847   0.00000  Uiso   1.00
C12    C     0.73587   0.55512   0.74584   0.00000  Uiso   1.00
C13    C     0.65920   0.60353   0.80859   0.00000  Uiso   1.00
C14    C     0.87099   0.77035   0.66850   0.00000  Uiso   1.00
C15    C     0.86955   0.74120   0.59322   0.00000  Uiso   1.00
C16    C     0.86936   0.83065   0.54177   0.00000  Uiso   1.00
C17    C     0.86796   0.78473   0.47617   0.00000  Uiso   1.00
C18    C     0.92121   0.70056   0.69634   0.00000  Uiso   1.00
C19    C     0.96446   0.75586   0.73160   0.00000  Uiso   1.00
C20    C     0.00655   0.67574   0.75282   0.00000  Uiso   1.00
C21    C     0.82074   0.70442   0.69880   0.00000  Uiso   1.00
C22    C     0.77952   0.76294   0.73615   0.00000  Uiso   1.00
C23    C     0.73704   0.68605   0.75946   0.00000  Uiso   1.00
H24    H     0.86794   0.42799   0.63290   0.00000  Uiso   1.00
H25    H     0.86609   0.46329   0.50359   0.00000  Uiso   1.00
H26    H     0.96117   0.38851   0.69340   0.00000  Uiso   1.00
H27    H     0.77626   0.39560   0.69794   0.00000  Uiso   1.00
H28    H     0.86457   0.56006   0.36622   0.00000  Uiso   1.00
H29    H     0.06504   0.40238   0.76646   0.00000  Uiso   1.00
H30    H     0.67513   0.41731   0.77605   0.00000  Uiso   1.00
H31    H     0.87190   0.87211   0.67909   0.00000  Uiso   1.00
H32    H     0.87026   0.93178   0.55231   0.00000  Uiso   1.00
H33    H     0.96535   0.85700   0.74211   0.00000  Uiso   1.00
H34    H     0.78044   0.86408   0.74666   0.00000  Uiso   1.00
H35    H     0.86796   0.94031   0.40576   0.00000  Uiso   1.00
H36    H     0.06843   0.78262   0.80600   0.00000  Uiso   1.00
H37    H     0.67852   0.79756   0.81559   0.00000  Uiso   1.00
O38    O     0.86514   0.78143   0.30176   0.00000  Uiso   1.00
O39    O     0.12814   0.57454   0.82687   0.00000  Uiso   1.00
O40    O     0.61659   0.59414   0.83944   0.00000  Uiso   1.00
N41    N     0.86558   0.64137   0.39292   0.00000  Uiso   1.00
N42    N     0.05302   0.49394   0.76712   0.00000  Uiso   1.00
N43    N     0.68849   0.50790   0.77609   0.00000  Uiso   1.00
N44    N     0.86741   0.84597   0.41420   0.00000  Uiso   1.00
N45    N     0.05484   0.69855   0.78839   0.00000  Uiso   1.00
N46    N     0.69031   0.71250   0.79737   0.00000  Uiso   1.00
C47    C     0.13116   0.47026   0.14348   0.00000  Uiso   1.00
C48    C     0.13162   0.38950   0.07963   0.00000  Uiso   1.00
C49    C     0.13301   0.43556   0.01409   0.00000  Uiso   1.00
C50    C     0.13320   0.34620   0.96255   0.00000  Uiso   1.00
C51    C     0.13407   0.24067   0.86134   0.00000  Uiso   1.00
C52    C     0.07995   0.43012   0.18275   0.00000  Uiso   1.00
C53    C     0.03792   0.51035   0.20392   0.00000  Uiso   1.00
C54    C     0.99462   0.45519   0.23920   0.00000  Uiso   1.00
C55    C     0.91529   0.41276   0.29813   0.00000  Uiso   1.00
C56    C     0.18042   0.42628   0.18521   0.00000  Uiso   1.00
C57    C     0.22285   0.50327   0.20847   0.00000  Uiso   1.00
C58    C     0.26413   0.44488   0.24584   0.00000  Uiso   1.00
C59    C     0.34080   0.39647   0.30859   0.00000  Uiso   1.00
C60    C     0.12901   0.22965   0.16850   0.00000  Uiso   1.00
C61    C     0.13045   0.25880   0.09322   0.00000  Uiso   1.00
C62    C     0.13064   0.16935   0.04177   0.00000  Uiso   1.00
C63    C     0.13204   0.21527   0.97617   0.00000  Uiso   1.00
C64    C     0.07879   0.29944   0.19634   0.00000  Uiso   1.00
C65    C     0.03554   0.24414   0.23160   0.00000  Uiso   1.00
C66    C     0.99345   0.32426   0.25282   0.00000  Uiso   1.00
C67    C     0.17926   0.29558   0.19880   0.00000  Uiso   1.00
C68    C     0.22048   0.23706   0.23615   0.00000  Uiso   1.00
C69    C     0.26296   0.31395   0.25946   0.00000  Uiso   1.00
H70    H     0.13206   0.57201   0.13290   0.00000  Uiso   1.00
H71    H     0.13391   0.53671   0.00359   0.00000  Uiso   1.00
H72    H     0.03883   0.61149   0.19340   0.00000  Uiso   1.00
H73    H     0.22374   0.60440   0.19794   0.00000  Uiso   1.00
H74    H     0.13543   0.43994   0.86622   0.00000  Uiso   1.00
H75    H     0.93496   0.59762   0.26646   0.00000  Uiso   1.00
H76    H     0.32487   0.58269   0.27605   0.00000  Uiso   1.00
H77    H     0.12810   0.12789   0.17909   0.00000  Uiso   1.00
H78    H     0.12974   0.06822   0.05231   0.00000  Uiso   1.00
H79    H     0.03465   0.14300   0.24211   0.00000  Uiso   1.00
H80    H     0.21956   0.13592   0.24666   0.00000  Uiso   1.00
H81    H     0.13204   0.05969   0.90576   0.00000  Uiso   1.00
H82    H     0.93157   0.21738   0.30600   0.00000  Uiso   1.00
H83    H     0.32148   0.20244   0.31559   0.00000  Uiso   1.00
O84    O     0.13486   0.21857   0.80176   0.00000  Uiso   1.00
O85    O     0.87186   0.42546   0.32687   0.00000  Uiso   1.00
O86    O     0.38341   0.40586   0.33944   0.00000  Uiso   1.00
N87    N     0.13442   0.35863   0.89292   0.00000  Uiso   1.00
N88    N     0.94698   0.50606   0.26712   0.00000  Uiso   1.00
N89    N     0.31151   0.49210   0.27609   0.00000  Uiso   1.00
N90    N     0.13259   0.15403   0.91420   0.00000  Uiso   1.00
N91    N     0.94516   0.30145   0.28839   0.00000  Uiso   1.00
N92    N     0.30969   0.28750   0.29737   0.00000  Uiso   1.00
C93    C     0.36884   0.97026   0.64348   0.00000  Uiso   1.00
C94    C     0.36838   0.88950   0.57963   0.00000  Uiso   1.00
C95    C     0.36699   0.93556   0.51409   0.00000  Uiso   1.00
C96    C     0.36680   0.84620   0.46255   0.00000  Uiso   1.00
C97    C     0.36593   0.74067   0.36134   0.00000  Uiso   1.00
C98    C     0.42005   0.93012   0.68275   0.00000  Uiso   1.00
C99    C     0.46208   0.01035   0.70392   0.00000  Uiso   1.00
C100   C     0.50538   0.95519   0.73920   0.00000  Uiso   1.00
C101   C     0.58471   0.91276   0.79813   0.00000  Uiso   1.00
C102   C     0.31958   0.92628   0.68521   0.00000  Uiso   1.00
C103   C     0.27715   0.00327   0.70847   0.00000  Uiso   1.00
C104   C     0.23587   0.94488   0.74584   0.00000  Uiso   1.00
C105   C     0.15920   0.89647   0.80859   0.00000  Uiso   1.00
C106   C     0.37099   0.72965   0.66850   0.00000  Uiso   1.00
C107   C     0.36955   0.75880   0.59322   0.00000  Uiso   1.00
C108   C     0.36936   0.66935   0.54177   0.00000  Uiso   1.00
C109   C     0.36796   0.71527   0.47617   0.00000  Uiso   1.00
C110   C     0.42121   0.79944   0.69634   0.00000  Uiso   1.00
C111   C     0.46446   0.74414   0.73160   0.00000  Uiso   1.00
C112   C     0.50655   0.82426   0.75282   0.00000  Uiso   1.00
C113   C     0.32074   0.79558   0.69880   0.00000  Uiso   1.00
C114   C     0.27952   0.73706   0.73615   0.00000  Uiso   1.00
C115   C     0.23704   0.81395   0.75946   0.00000  Uiso   1.00
H116   H     0.36794   0.07201   0.63290   0.00000  Uiso   1.00
H117   H     0.36609   0.03671   0.50359   0.00000  Uiso   1.00
H118   H     0.46117   0.11149   0.69340   0.00000  Uiso   1.00
H119   H     0.27626   0.10440   0.69794   0.00000  Uiso   1.00
H120   H     0.36457   0.93994   0.36622   0.00000  Uiso   1.00
H121   H     0.56504   0.09762   0.76646   0.00000  Uiso   1.00
H122   H     0.17513   0.08269   0.77605   0.00000  Uiso   1.00
H123   H     0.37190   0.62789   0.67909   0.00000  Uiso   1.00
H124   H     0.37026   0.56822   0.55231   0.00000  Uiso   1.00
H125   H     0.46535   0.64300   0.74211   0.00000  Uiso   1.00
H126   H     0.28044   0.63592   0.74666   0.00000  Uiso   1.00
H127   H     0.36796   0.55969   0.40576   0.00000  Uiso   1.00
H128   H     0.56843   0.71738   0.80600   0.00000  Uiso   1.00
H129   H     0.17852   0.70244   0.81559   0.00000  Uiso   1.00
O130   O     0.36514   0.71857   0.30176   0.00000  Uiso   1.00
O131   O     0.62814   0.92546   0.82687   0.00000  Uiso   1.00
O132   O     0.11659   0.90586   0.83944   0.00000  Uiso   1.00
N133   N     0.36558   0.85863   0.39292   0.00000  Uiso   1.00
N134   N     0.55302   0.00606   0.76712   0.00000  Uiso   1.00
N135   N     0.18849   0.99210   0.77609   0.00000  Uiso   1.00
N136   N     0.36741   0.65403   0.41420   0.00000  Uiso   1.00
N137   N     0.55484   0.80145   0.78839   0.00000  Uiso   1.00
N138   N     0.19031   0.78750   0.79737   0.00000  Uiso   1.00
C139   C     0.63116   0.02974   0.14348   0.00000  Uiso   1.00
C140   C     0.63162   0.11050   0.07963   0.00000  Uiso   1.00
C141   C     0.63301   0.06444   0.01409   0.00000  Uiso   1.00
C142   C     0.63320   0.15380   0.96255   0.00000  Uiso   1.00
C143   C     0.63407   0.25933   0.86134   0.00000  Uiso   1.00
C144   C     0.57995   0.06988   0.18275   0.00000  Uiso   1.00
C145   C     0.53792   0.98965   0.20392   0.00000  Uiso   1.00
C146   C     0.49462   0.04481   0.23920   0.00000  Uiso   1.00
C147   C     0.41529   0.08724   0.29813   0.00000  Uiso   1.00
C148   C     0.68042   0.07372   0.18521   0.00000  Uiso   1.00
C149   C     0.72285   0.99673   0.20847   0.00000  Uiso   1.00
C150   C     0.76413   0.05512   0.24584   0.00000  Uiso   1.00
C151   C     0.84080   0.10353   0.30859   0.00000  Uiso   1.00
C152   C     0.62901   0.27035   0.16850   0.00000  Uiso   1.00
C153   C     0.63045   0.24120   0.09322   0.00000  Uiso   1.00
C154   C     0.63064   0.33065   0.04177   0.00000  Uiso   1.00
C155   C     0.63204   0.28473   0.97617   0.00000  Uiso   1.00
C156   C     0.57879   0.20056   0.19634   0.00000  Uiso   1.00
C157   C     0.53554   0.25586   0.23160   0.00000  Uiso   1.00
C158   C     0.49345   0.17574   0.25282   0.00000  Uiso   1.00
C159   C     0.67926   0.20442   0.19880   0.00000  Uiso   1.00
C160   C     0.72048   0.26294   0.23615   0.00000  Uiso   1.00
C161   C     0.76296   0.18605   0.25946   0.00000  Uiso   1.00
H162   H     0.63206   0.92799   0.13290   0.00000  Uiso   1.00
H163   H     0.63391   0.96329   0.00359   0.00000  Uiso   1.00
H164   H     0.53883   0.88851   0.19340   0.00000  Uiso   1.00
H165   H     0.72374   0.89560   0.19794   0.00000  Uiso   1.00
H166   H     0.63543   0.06006   0.86622   0.00000  Uiso   1.00
H167   H     0.43496   0.90238   0.26646   0.00000  Uiso   1.00
H168   H     0.82487   0.91731   0.27605   0.00000  Uiso   1.00
H169   H     0.62810   0.37211   0.17909   0.00000  Uiso   1.00
H170   H     0.62974   0.43178   0.05231   0.00000  Uiso   1.00
H171   H     0.53465   0.35700   0.24211   0.00000  Uiso   1.00
H172   H     0.71956   0.36408   0.24666   0.00000  Uiso   1.00
H173   H     0.63204   0.44031   0.90576   0.00000  Uiso   1.00
H174   H     0.43157   0.28262   0.30600   0.00000  Uiso   1.00
H175   H     0.82148   0.29756   0.31559   0.00000  Uiso   1.00
O176   O     0.63486   0.28143   0.80176   0.00000  Uiso   1.00
O177   O     0.37186   0.07454   0.32687   0.00000  Uiso   1.00
O178   O     0.88341   0.09414   0.33944   0.00000  Uiso   1.00
N179   N     0.63442   0.14137   0.89292   0.00000  Uiso   1.00
N180   N     0.44698   0.99394   0.26712   0.00000  Uiso   1.00
N181   N     0.81151   0.00790   0.27609   0.00000  Uiso   1.00
N182   N     0.63259   0.34597   0.91420   0.00000  Uiso   1.00
N183   N     0.44516   0.19855   0.28839   0.00000  Uiso   1.00
N184   N     0.80969   0.21250   0.29737   0.00000  Uiso   1.00
