data_job_02778
_audit_creation_date              2018-12-19
_audit_creation_method            'Materials Studio'
_symmetry_space_group_name_H-M    'P1'
_symmetry_Int_Tables_number       1
_symmetry_cell_setting            triclinic
loop_
_symmetry_equiv_pos_as_xyz
  x,y,z
_cell_length_a                    21.3225
_cell_length_b                    21.3225
_cell_length_c                    9.5727
_cell_angle_alpha                 90.0000
_cell_angle_beta                  90.0000
_cell_angle_gamma                 120.0000
loop_
_atom_site_label
_atom_site_type_symbol
_atom_site_fract_x
_atom_site_fract_y
_atom_site_fract_z
_atom_site_U_iso_or_equiv
_atom_site_adp_type
_atom_site_occupancy
C1     C     0.73574   0.73547   0.65383   0.00000  Uiso   1.00
C2     C     0.72852   0.66233   0.61923   0.00000  Uiso   1.00
C3     C     0.77258   0.65094   0.52838   0.00000  Uiso   1.00
C4     C     0.75710   0.57997   0.51081   0.00000  Uiso   1.00
C5     C     0.75461   0.47514   0.44626   0.00000  Uiso   1.00
C6     C     0.66265   0.72838   0.61939   0.00000  Uiso   1.00
C7     C     0.65132   0.77254   0.52869   0.00000  Uiso   1.00
C8     C     0.58038   0.75718   0.51128   0.00000  Uiso   1.00
C9     C     0.47562   0.75494   0.44705   0.00000  Uiso   1.00
C10    C     0.74352   0.74320   0.81219   0.00000  Uiso   1.00
C11    C     0.80019   0.79982   0.88360   0.00000  Uiso   1.00
C12    C     0.79733   0.79694   0.02851   0.00000  Uiso   1.00
C13    C     0.81815   0.81769   0.26363   0.00000  Uiso   1.00
C14    C     0.62990   0.62968   0.78418   0.00000  Uiso   1.00
C15    C     0.67103   0.60487   0.69003   0.00000  Uiso   1.00
C16    C     0.65548   0.53390   0.67260   0.00000  Uiso   1.00
C17    C     0.69951   0.52241   0.58174   0.00000  Uiso   1.00
C18    C     0.60516   0.67093   0.69019   0.00000  Uiso   1.00
C19    C     0.53422   0.65550   0.67291   0.00000  Uiso   1.00
C20    C     0.52278   0.69962   0.58220   0.00000  Uiso   1.00
C21    C     0.68603   0.68574   0.88299   0.00000  Uiso   1.00
C22    C     0.68309   0.68277   0.02782   0.00000  Uiso   1.00
C23    C     0.73974   0.73937   0.09944   0.00000  Uiso   1.00
H24    H     0.78050   0.78020   0.59871   0.00000  Uiso   1.00
H25    H     0.81706   0.69542   0.47360   0.00000  Uiso   1.00
H26    H     0.69582   0.81701   0.47393   0.00000  Uiso   1.00
H27    H     0.84467   0.84427   0.82878   0.00000  Uiso   1.00
H28    H     0.83223   0.57608   0.36608   0.00000  Uiso   1.00
H29    H     0.57659   0.83247   0.36681   0.00000  Uiso   1.00
H30    H     0.89046   0.88997   0.11508   0.00000  Uiso   1.00
H31    H     0.58514   0.58494   0.83931   0.00000  Uiso   1.00
H32    H     0.61099   0.48944   0.72740   0.00000  Uiso   1.00
H33    H     0.48974   0.61103   0.72772   0.00000  Uiso   1.00
H34    H     0.63859   0.63830   0.08257   0.00000  Uiso   1.00
H35    H     0.66497   0.40890   0.57207   0.00000  Uiso   1.00
H36    H     0.40932   0.66529   0.57279   0.00000  Uiso   1.00
H37    H     0.72320   0.72279   0.32106   0.00000  Uiso   1.00
O38    O     0.76911   0.43319   0.39108   0.00000  Uiso   1.00
O39    O     0.43372   0.76957   0.39205   0.00000  Uiso   1.00
O40    O     0.84551   0.84500   0.37376   0.00000  Uiso   1.00
N41    N     0.78933   0.54984   0.42994   0.00000  Uiso   1.00
N42    N     0.55031   0.78954   0.43060   0.00000  Uiso   1.00
N43    N     0.84375   0.84331   0.13017   0.00000  Uiso   1.00
N44    N     0.69933   0.45989   0.54078   0.00000  Uiso   1.00
N45    N     0.46031   0.69959   0.54144   0.00000  Uiso   1.00
N46    N     0.75375   0.75335   0.24101   0.00000  Uiso   1.00
C47    C     0.26453   0.00028   0.65383   0.00000  Uiso   1.00
C48    C     0.33767   0.06620   0.61923   0.00000  Uiso   1.00
C49    C     0.34906   0.12164   0.52838   0.00000  Uiso   1.00
C50    C     0.42003   0.17713   0.51081   0.00000  Uiso   1.00
C51    C     0.52486   0.27947   0.44626   0.00000  Uiso   1.00
C52    C     0.27162   0.93426   0.61939   0.00000  Uiso   1.00
C53    C     0.22746   0.87878   0.52869   0.00000  Uiso   1.00
C54    C     0.24282   0.82319   0.51128   0.00000  Uiso   1.00
C55    C     0.24506   0.72068   0.44705   0.00000  Uiso   1.00
C56    C     0.25680   0.00033   0.81219   0.00000  Uiso   1.00
C57    C     0.20018   0.00037   0.88360   0.00000  Uiso   1.00
C58    C     0.20306   0.00039   0.02851   0.00000  Uiso   1.00
C59    C     0.18231   0.00046   0.26363   0.00000  Uiso   1.00
C60    C     0.37032   0.00022   0.78418   0.00000  Uiso   1.00
C61    C     0.39513   0.06616   0.69003   0.00000  Uiso   1.00
C62    C     0.46610   0.12158   0.67260   0.00000  Uiso   1.00
C63    C     0.47759   0.17710   0.58174   0.00000  Uiso   1.00
C64    C     0.32907   0.93423   0.69019   0.00000  Uiso   1.00
C65    C     0.34450   0.87871   0.67291   0.00000  Uiso   1.00
C66    C     0.30038   0.82316   0.58220   0.00000  Uiso   1.00
C67    C     0.31426   0.00030   0.88299   0.00000  Uiso   1.00
C68    C     0.31723   0.00031   0.02782   0.00000  Uiso   1.00
C69    C     0.26063   0.00036   0.09944   0.00000  Uiso   1.00
H70    H     0.21980   0.00030   0.59871   0.00000  Uiso   1.00
H71    H     0.30458   0.12164   0.47360   0.00000  Uiso   1.00
H72    H     0.18299   0.87881   0.47393   0.00000  Uiso   1.00
H73    H     0.15573   0.00039   0.82878   0.00000  Uiso   1.00
H74    H     0.42392   0.25615   0.36608   0.00000  Uiso   1.00
H75    H     0.16753   0.74412   0.36681   0.00000  Uiso   1.00
H76    H     0.11003   0.00049   0.11508   0.00000  Uiso   1.00
H77    H     0.41506   0.00019   0.83931   0.00000  Uiso   1.00
H78    H     0.51056   0.12154   0.72740   0.00000  Uiso   1.00
H79    H     0.38897   0.87871   0.72772   0.00000  Uiso   1.00
H80    H     0.36170   0.00029   0.08257   0.00000  Uiso   1.00
H81    H     0.59110   0.25607   0.57207   0.00000  Uiso   1.00
H82    H     0.33471   0.74403   0.57279   0.00000  Uiso   1.00
H83    H     0.27721   0.00041   0.32106   0.00000  Uiso   1.00
O84    O     0.56681   0.33592   0.39108   0.00000  Uiso   1.00
O85    O     0.23043   0.66415   0.39205   0.00000  Uiso   1.00
O86    O     0.15500   0.00051   0.37376   0.00000  Uiso   1.00
N87    N     0.45016   0.23949   0.42994   0.00000  Uiso   1.00
N88    N     0.21046   0.76077   0.43060   0.00000  Uiso   1.00
N89    N     0.15669   0.00044   0.13017   0.00000  Uiso   1.00
N90    N     0.54011   0.23944   0.54078   0.00000  Uiso   1.00
N91    N     0.30041   0.76072   0.54144   0.00000  Uiso   1.00
N92    N     0.24665   0.00040   0.24101   0.00000  Uiso   1.00
C93    C     0.99972   0.26426   0.65383   0.00000  Uiso   1.00
C94    C     0.93380   0.27148   0.61923   0.00000  Uiso   1.00
C95    C     0.87836   0.22742   0.52838   0.00000  Uiso   1.00
C96    C     0.82287   0.24290   0.51081   0.00000  Uiso   1.00
C97    C     0.72053   0.24539   0.44626   0.00000  Uiso   1.00
C98    C     0.06574   0.33735   0.61939   0.00000  Uiso   1.00
C99    C     0.12122   0.34868   0.52869   0.00000  Uiso   1.00
C100   C     0.17681   0.41962   0.51128   0.00000  Uiso   1.00
C101   C     0.27932   0.52438   0.44705   0.00000  Uiso   1.00
C102   C     0.99967   0.25648   0.81219   0.00000  Uiso   1.00
C103   C     0.99963   0.19981   0.88360   0.00000  Uiso   1.00
C104   C     0.99961   0.20267   0.02851   0.00000  Uiso   1.00
C105   C     0.99954   0.18185   0.26363   0.00000  Uiso   1.00
C106   C     0.99978   0.37010   0.78418   0.00000  Uiso   1.00
C107   C     0.93384   0.32897   0.69003   0.00000  Uiso   1.00
C108   C     0.87842   0.34452   0.67260   0.00000  Uiso   1.00
C109   C     0.82290   0.30049   0.58174   0.00000  Uiso   1.00
C110   C     0.06577   0.39484   0.69019   0.00000  Uiso   1.00
C111   C     0.12129   0.46578   0.67291   0.00000  Uiso   1.00
C112   C     0.17684   0.47722   0.58220   0.00000  Uiso   1.00
C113   C     0.99970   0.31397   0.88299   0.00000  Uiso   1.00
C114   C     0.99969   0.31691   0.02782   0.00000  Uiso   1.00
C115   C     0.99964   0.26026   0.09944   0.00000  Uiso   1.00
H116   H     0.99970   0.21950   0.59871   0.00000  Uiso   1.00
H117   H     0.87836   0.18294   0.47360   0.00000  Uiso   1.00
H118   H     0.12119   0.30418   0.47393   0.00000  Uiso   1.00
H119   H     0.99961   0.15533   0.82878   0.00000  Uiso   1.00
H120   H     0.74385   0.16777   0.36608   0.00000  Uiso   1.00
H121   H     0.25588   0.42341   0.36681   0.00000  Uiso   1.00
H122   H     0.99951   0.10954   0.11508   0.00000  Uiso   1.00
H123   H     0.99981   0.41486   0.83931   0.00000  Uiso   1.00
H124   H     0.87846   0.38901   0.72740   0.00000  Uiso   1.00
H125   H     0.12129   0.51026   0.72772   0.00000  Uiso   1.00
H126   H     0.99971   0.36141   0.08257   0.00000  Uiso   1.00
H127   H     0.74393   0.33503   0.57207   0.00000  Uiso   1.00
H128   H     0.25597   0.59068   0.57279   0.00000  Uiso   1.00
H129   H     0.99959   0.27680   0.32106   0.00000  Uiso   1.00
O130   O     0.66408   0.23089   0.39108   0.00000  Uiso   1.00
O131   O     0.33585   0.56628   0.39205   0.00000  Uiso   1.00
O132   O     0.99949   0.15449   0.37376   0.00000  Uiso   1.00
N133   N     0.76051   0.21067   0.42994   0.00000  Uiso   1.00
N134   N     0.23923   0.44969   0.43060   0.00000  Uiso   1.00
N135   N     0.99956   0.15625   0.13017   0.00000  Uiso   1.00
N136   N     0.76056   0.30067   0.54078   0.00000  Uiso   1.00
N137   N     0.23928   0.53969   0.54144   0.00000  Uiso   1.00
N138   N     0.99960   0.24625   0.24101   0.00000  Uiso   1.00
C139   C     0.26426   0.26453   0.15383   0.00000  Uiso   1.00
C140   C     0.27148   0.33767   0.11923   0.00000  Uiso   1.00
C141   C     0.22742   0.34906   0.02838   0.00000  Uiso   1.00
C142   C     0.24290   0.42003   0.01081   0.00000  Uiso   1.00
C143   C     0.24539   0.52486   0.94626   0.00000  Uiso   1.00
C144   C     0.33735   0.27162   0.11939   0.00000  Uiso   1.00
C145   C     0.34868   0.22746   0.02869   0.00000  Uiso   1.00
C146   C     0.41962   0.24282   0.01128   0.00000  Uiso   1.00
C147   C     0.52438   0.24506   0.94705   0.00000  Uiso   1.00
C148   C     0.25648   0.25680   0.31219   0.00000  Uiso   1.00
C149   C     0.19981   0.20018   0.38360   0.00000  Uiso   1.00
C150   C     0.20267   0.20306   0.52851   0.00000  Uiso   1.00
C151   C     0.18185   0.18231   0.76363   0.00000  Uiso   1.00
C152   C     0.37010   0.37032   0.28418   0.00000  Uiso   1.00
C153   C     0.32897   0.39513   0.19003   0.00000  Uiso   1.00
C154   C     0.34452   0.46610   0.17260   0.00000  Uiso   1.00
C155   C     0.30049   0.47759   0.08174   0.00000  Uiso   1.00
C156   C     0.39484   0.32907   0.19019   0.00000  Uiso   1.00
C157   C     0.46578   0.34450   0.17291   0.00000  Uiso   1.00
C158   C     0.47722   0.30038   0.08220   0.00000  Uiso   1.00
C159   C     0.31397   0.31426   0.38299   0.00000  Uiso   1.00
C160   C     0.31691   0.31723   0.52782   0.00000  Uiso   1.00
C161   C     0.26026   0.26063   0.59944   0.00000  Uiso   1.00
H162   H     0.21950   0.21980   0.09871   0.00000  Uiso   1.00
H163   H     0.18294   0.30458   0.97360   0.00000  Uiso   1.00
H164   H     0.30418   0.18299   0.97393   0.00000  Uiso   1.00
H165   H     0.15533   0.15573   0.32878   0.00000  Uiso   1.00
H166   H     0.16777   0.42392   0.86608   0.00000  Uiso   1.00
H167   H     0.42341   0.16753   0.86681   0.00000  Uiso   1.00
H168   H     0.10954   0.11003   0.61508   0.00000  Uiso   1.00
H169   H     0.41486   0.41506   0.33931   0.00000  Uiso   1.00
H170   H     0.38901   0.51056   0.22740   0.00000  Uiso   1.00
H171   H     0.51026   0.38897   0.22772   0.00000  Uiso   1.00
H172   H     0.36141   0.36170   0.58257   0.00000  Uiso   1.00
H173   H     0.33503   0.59110   0.07207   0.00000  Uiso   1.00
H174   H     0.59068   0.33471   0.07279   0.00000  Uiso   1.00
H175   H     0.27680   0.27721   0.82106   0.00000  Uiso   1.00
O176   O     0.23089   0.56681   0.89108   0.00000  Uiso   1.00
O177   O     0.56628   0.23043   0.89205   0.00000  Uiso   1.00
O178   O     0.15449   0.15500   0.87376   0.00000  Uiso   1.00
N179   N     0.21067   0.45016   0.92994   0.00000  Uiso   1.00
N180   N     0.44969   0.21046   0.93060   0.00000  Uiso   1.00
N181   N     0.15625   0.15669   0.63017   0.00000  Uiso   1.00
N182   N     0.30067   0.54011   0.04078   0.00000  Uiso   1.00
N183   N     0.53969   0.30041   0.04144   0.00000  Uiso   1.00
N184   N     0.24625   0.24665   0.74101   0.00000  Uiso   1.00
C185   C     0.73547   0.99972   0.15383   0.00000  Uiso   1.00
C186   C     0.66233   0.93380   0.11923   0.00000  Uiso   1.00
C187   C     0.65094   0.87836   0.02838   0.00000  Uiso   1.00
C188   C     0.57997   0.82287   0.01081   0.00000  Uiso   1.00
C189   C     0.47514   0.72053   0.94626   0.00000  Uiso   1.00
C190   C     0.72838   0.06574   0.11939   0.00000  Uiso   1.00
C191   C     0.77254   0.12122   0.02869   0.00000  Uiso   1.00
C192   C     0.75718   0.17681   0.01128   0.00000  Uiso   1.00
C193   C     0.75494   0.27932   0.94705   0.00000  Uiso   1.00
C194   C     0.74320   0.99967   0.31219   0.00000  Uiso   1.00
C195   C     0.79982   0.99963   0.38360   0.00000  Uiso   1.00
C196   C     0.79694   0.99961   0.52851   0.00000  Uiso   1.00
C197   C     0.81769   0.99954   0.76363   0.00000  Uiso   1.00
C198   C     0.62968   0.99978   0.28418   0.00000  Uiso   1.00
C199   C     0.60487   0.93384   0.19003   0.00000  Uiso   1.00
C200   C     0.53390   0.87842   0.17260   0.00000  Uiso   1.00
C201   C     0.52241   0.82290   0.08174   0.00000  Uiso   1.00
C202   C     0.67093   0.06577   0.19019   0.00000  Uiso   1.00
C203   C     0.65550   0.12129   0.17291   0.00000  Uiso   1.00
C204   C     0.69962   0.17684   0.08220   0.00000  Uiso   1.00
C205   C     0.68574   0.99970   0.38299   0.00000  Uiso   1.00
C206   C     0.68277   0.99969   0.52782   0.00000  Uiso   1.00
C207   C     0.73937   0.99964   0.59944   0.00000  Uiso   1.00
H208   H     0.78020   0.99970   0.09871   0.00000  Uiso   1.00
H209   H     0.69542   0.87836   0.97360   0.00000  Uiso   1.00
H210   H     0.81701   0.12119   0.97393   0.00000  Uiso   1.00
H211   H     0.84427   0.99961   0.32878   0.00000  Uiso   1.00
H212   H     0.57608   0.74385   0.86608   0.00000  Uiso   1.00
H213   H     0.83247   0.25588   0.86681   0.00000  Uiso   1.00
H214   H     0.88997   0.99951   0.61508   0.00000  Uiso   1.00
H215   H     0.58494   0.99981   0.33931   0.00000  Uiso   1.00
H216   H     0.48944   0.87846   0.22740   0.00000  Uiso   1.00
H217   H     0.61103   0.12129   0.22772   0.00000  Uiso   1.00
H218   H     0.63830   0.99971   0.58257   0.00000  Uiso   1.00
H219   H     0.40890   0.74393   0.07207   0.00000  Uiso   1.00
H220   H     0.66529   0.25597   0.07279   0.00000  Uiso   1.00
H221   H     0.72279   0.99959   0.82106   0.00000  Uiso   1.00
O222   O     0.43319   0.66408   0.89108   0.00000  Uiso   1.00
O223   O     0.76957   0.33585   0.89205   0.00000  Uiso   1.00
O224   O     0.84500   0.99949   0.87376   0.00000  Uiso   1.00
N225   N     0.54984   0.76051   0.92994   0.00000  Uiso   1.00
N226   N     0.78954   0.23923   0.93060   0.00000  Uiso   1.00
N227   N     0.84331   0.99956   0.63017   0.00000  Uiso   1.00
N228   N     0.45989   0.76056   0.04078   0.00000  Uiso   1.00
N229   N     0.69959   0.23928   0.04144   0.00000  Uiso   1.00
N230   N     0.75335   0.99960   0.74101   0.00000  Uiso   1.00
C231   C     0.00028   0.73574   0.15383   0.00000  Uiso   1.00
C232   C     0.06620   0.72852   0.11923   0.00000  Uiso   1.00
C233   C     0.12164   0.77258   0.02838   0.00000  Uiso   1.00
C234   C     0.17713   0.75710   0.01081   0.00000  Uiso   1.00
C235   C     0.27947   0.75461   0.94626   0.00000  Uiso   1.00
C236   C     0.93426   0.66265   0.11939   0.00000  Uiso   1.00
C237   C     0.87878   0.65132   0.02869   0.00000  Uiso   1.00
C238   C     0.82319   0.58038   0.01128   0.00000  Uiso   1.00
C239   C     0.72068   0.47562   0.94705   0.00000  Uiso   1.00
C240   C     0.00033   0.74352   0.31219   0.00000  Uiso   1.00
C241   C     0.00037   0.80019   0.38360   0.00000  Uiso   1.00
C242   C     0.00039   0.79733   0.52851   0.00000  Uiso   1.00
C243   C     0.00046   0.81815   0.76363   0.00000  Uiso   1.00
C244   C     0.00022   0.62990   0.28418   0.00000  Uiso   1.00
C245   C     0.06616   0.67103   0.19003   0.00000  Uiso   1.00
C246   C     0.12158   0.65548   0.17260   0.00000  Uiso   1.00
C247   C     0.17710   0.69951   0.08174   0.00000  Uiso   1.00
C248   C     0.93423   0.60516   0.19019   0.00000  Uiso   1.00
C249   C     0.87871   0.53422   0.17291   0.00000  Uiso   1.00
C250   C     0.82316   0.52278   0.08220   0.00000  Uiso   1.00
C251   C     0.00030   0.68603   0.38299   0.00000  Uiso   1.00
C252   C     0.00031   0.68309   0.52782   0.00000  Uiso   1.00
C253   C     0.00036   0.73974   0.59944   0.00000  Uiso   1.00
H254   H     0.00030   0.78050   0.09871   0.00000  Uiso   1.00
H255   H     0.12164   0.81706   0.97360   0.00000  Uiso   1.00
H256   H     0.87881   0.69582   0.97393   0.00000  Uiso   1.00
H257   H     0.00039   0.84467   0.32878   0.00000  Uiso   1.00
H258   H     0.25615   0.83223   0.86608   0.00000  Uiso   1.00
H259   H     0.74412   0.57659   0.86681   0.00000  Uiso   1.00
H260   H     0.00049   0.89046   0.61508   0.00000  Uiso   1.00
H261   H     0.00019   0.58514   0.33931   0.00000  Uiso   1.00
H262   H     0.12154   0.61099   0.22740   0.00000  Uiso   1.00
H263   H     0.87871   0.48974   0.22772   0.00000  Uiso   1.00
H264   H     0.00029   0.63859   0.58257   0.00000  Uiso   1.00
H265   H     0.25607   0.66497   0.07207   0.00000  Uiso   1.00
H266   H     0.74403   0.40932   0.07279   0.00000  Uiso   1.00
H267   H     0.00041   0.72320   0.82106   0.00000  Uiso   1.00
O268   O     0.33592   0.76911   0.89108   0.00000  Uiso   1.00
O269   O     0.66415   0.43372   0.89205   0.00000  Uiso   1.00
O270   O     0.00051   0.84551   0.87376   0.00000  Uiso   1.00
N271   N     0.23949   0.78933   0.92994   0.00000  Uiso   1.00
N272   N     0.76077   0.55031   0.93060   0.00000  Uiso   1.00
N273   N     0.00044   0.84375   0.63017   0.00000  Uiso   1.00
N274   N     0.23944   0.69933   0.04078   0.00000  Uiso   1.00
N275   N     0.76072   0.46031   0.04144   0.00000  Uiso   1.00
N276   N     0.00040   0.75375   0.74101   0.00000  Uiso   1.00
