data_job_02939
_audit_creation_date              2018-12-19
_audit_creation_method            'Materials Studio'
_symmetry_space_group_name_H-M    'P1'
_symmetry_Int_Tables_number       1
_symmetry_cell_setting            triclinic
loop_
_symmetry_equiv_pos_as_xyz
  x,y,z
_cell_length_a                    15.5348
_cell_length_b                    23.1454
_cell_length_c                    20.6429
_cell_angle_alpha                 90.0000
_cell_angle_beta                  58.2494
_cell_angle_gamma                 90.0000
loop_
_atom_site_label
_atom_site_type_symbol
_atom_site_fract_x
_atom_site_fract_y
_atom_site_fract_z
_atom_site_U_iso_or_equiv
_atom_site_adp_type
_atom_site_occupancy
C1     C     0.78443   0.41133   0.51486   0.00000  Uiso   1.00
C2     C     0.77054   0.36299   0.56975   0.00000  Uiso   1.00
C3     C     0.83198   0.31468   0.55178   0.00000  Uiso   1.00
C4     C     0.80657   0.27541   0.61001   0.00000  Uiso   1.00
C5     C     0.79772   0.19899   0.68404   0.00000  Uiso   1.00
C6     C     0.68518   0.41494   0.51665   0.00000  Uiso   1.00
C7     C     0.67487   0.41033   0.45403   0.00000  Uiso   1.00
C8     C     0.57760   0.41480   0.46756   0.00000  Uiso   1.00
C9     C     0.43625   0.41908   0.45915   0.00000  Uiso   1.00
C10    C     0.79175   0.46714   0.55095   0.00000  Uiso   1.00
C11    C     0.87103   0.50643   0.51716   0.00000  Uiso   1.00
C12    C     0.86347   0.55485   0.55956   0.00000  Uiso   1.00
C13    C     0.88759   0.64017   0.60440   0.00000  Uiso   1.00
C14    C     0.63003   0.42748   0.65024   0.00000  Uiso   1.00
C15    C     0.68667   0.37175   0.64328   0.00000  Uiso   1.00
C16    C     0.66115   0.33254   0.70155   0.00000  Uiso   1.00
C17    C     0.72255   0.28419   0.68367   0.00000  Uiso   1.00
C18    C     0.60132   0.42371   0.59018   0.00000  Uiso   1.00
C19    C     0.50404   0.42819   0.60380   0.00000  Uiso   1.00
C20    C     0.49358   0.42358   0.54122   0.00000  Uiso   1.00
C21    C     0.70789   0.47591   0.62448   0.00000  Uiso   1.00
C22    C     0.70020   0.52428   0.66694   0.00000  Uiso   1.00
C23    C     0.77945   0.56363   0.63322   0.00000  Uiso   1.00
H24    H     0.84971   0.40451   0.45762   0.00000  Uiso   1.00
H25    H     0.89687   0.30791   0.49487   0.00000  Uiso   1.00
H26    H     0.73978   0.40355   0.39713   0.00000  Uiso   1.00
H27    H     0.93591   0.49963   0.46026   0.00000  Uiso   1.00
H28    H     0.91215   0.20467   0.56859   0.00000  Uiso   1.00
H29    H     0.58092   0.40635   0.36251   0.00000  Uiso   1.00
H30    H     0.99450   0.60895   0.49562   0.00000  Uiso   1.00
H31    H     0.56473   0.43430   0.70748   0.00000  Uiso   1.00
H32    H     0.59625   0.33934   0.75845   0.00000  Uiso   1.00
H33    H     0.43916   0.43498   0.66071   0.00000  Uiso   1.00
H34    H     0.63529   0.53105   0.72384   0.00000  Uiso   1.00
H35    H     0.66815   0.23018   0.78252   0.00000  Uiso   1.00
H36    H     0.33693   0.43186   0.57643   0.00000  Uiso   1.00
H37    H     0.75050   0.63445   0.70955   0.00000  Uiso   1.00
O38    O     0.81600   0.15441   0.70456   0.00000  Uiso   1.00
O39    O     0.38146   0.41901   0.43419   0.00000  Uiso   1.00
O40    O     0.92406   0.68481   0.60883   0.00000  Uiso   1.00
N41    N     0.85041   0.22371   0.61195   0.00000  Uiso   1.00
N42    N     0.54073   0.41226   0.41927   0.00000  Uiso   1.00
N43    N     0.92738   0.60168   0.54371   0.00000  Uiso   1.00
N44    N     0.71911   0.23744   0.72706   0.00000  Uiso   1.00
N45    N     0.40944   0.42599   0.53439   0.00000  Uiso   1.00
N46    N     0.79609   0.61540   0.65883   0.00000  Uiso   1.00
C47    C     0.28443   0.91133   0.51486   0.00000  Uiso   1.00
C48    C     0.27054   0.86299   0.56975   0.00000  Uiso   1.00
C49    C     0.33198   0.81468   0.55178   0.00000  Uiso   1.00
C50    C     0.30657   0.77541   0.61001   0.00000  Uiso   1.00
C51    C     0.29772   0.69899   0.68404   0.00000  Uiso   1.00
C52    C     0.18518   0.91494   0.51665   0.00000  Uiso   1.00
C53    C     0.17487   0.91033   0.45403   0.00000  Uiso   1.00
C54    C     0.07760   0.91480   0.46756   0.00000  Uiso   1.00
C55    C     0.93625   0.91908   0.45915   0.00000  Uiso   1.00
C56    C     0.29175   0.96714   0.55095   0.00000  Uiso   1.00
C57    C     0.37103   0.00643   0.51716   0.00000  Uiso   1.00
C58    C     0.36347   0.05485   0.55956   0.00000  Uiso   1.00
C59    C     0.38759   0.14017   0.60440   0.00000  Uiso   1.00
C60    C     0.13003   0.92748   0.65024   0.00000  Uiso   1.00
C61    C     0.18667   0.87175   0.64328   0.00000  Uiso   1.00
C62    C     0.16115   0.83254   0.70155   0.00000  Uiso   1.00
C63    C     0.22255   0.78419   0.68367   0.00000  Uiso   1.00
C64    C     0.10132   0.92371   0.59018   0.00000  Uiso   1.00
C65    C     0.00404   0.92819   0.60380   0.00000  Uiso   1.00
C66    C     0.99358   0.92358   0.54122   0.00000  Uiso   1.00
C67    C     0.20789   0.97591   0.62448   0.00000  Uiso   1.00
C68    C     0.20020   0.02428   0.66694   0.00000  Uiso   1.00
C69    C     0.27945   0.06363   0.63322   0.00000  Uiso   1.00
H70    H     0.34971   0.90451   0.45762   0.00000  Uiso   1.00
H71    H     0.39687   0.80791   0.49487   0.00000  Uiso   1.00
H72    H     0.23978   0.90355   0.39713   0.00000  Uiso   1.00
H73    H     0.43591   0.99963   0.46026   0.00000  Uiso   1.00
H74    H     0.41215   0.70467   0.56859   0.00000  Uiso   1.00
H75    H     0.08092   0.90635   0.36251   0.00000  Uiso   1.00
H76    H     0.49450   0.10895   0.49562   0.00000  Uiso   1.00
H77    H     0.06473   0.93430   0.70748   0.00000  Uiso   1.00
H78    H     0.09625   0.83934   0.75845   0.00000  Uiso   1.00
H79    H     0.93916   0.93498   0.66071   0.00000  Uiso   1.00
H80    H     0.13529   0.03105   0.72384   0.00000  Uiso   1.00
H81    H     0.16815   0.73018   0.78252   0.00000  Uiso   1.00
H82    H     0.83693   0.93186   0.57643   0.00000  Uiso   1.00
H83    H     0.25050   0.13445   0.70955   0.00000  Uiso   1.00
O84    O     0.31600   0.65441   0.70456   0.00000  Uiso   1.00
O85    O     0.88146   0.91901   0.43419   0.00000  Uiso   1.00
O86    O     0.42406   0.18481   0.60883   0.00000  Uiso   1.00
N87    N     0.35041   0.72371   0.61195   0.00000  Uiso   1.00
N88    N     0.04073   0.91226   0.41927   0.00000  Uiso   1.00
N89    N     0.42738   0.10168   0.54371   0.00000  Uiso   1.00
N90    N     0.21911   0.73744   0.72706   0.00000  Uiso   1.00
N91    N     0.90944   0.92599   0.53439   0.00000  Uiso   1.00
N92    N     0.29609   0.11540   0.65883   0.00000  Uiso   1.00
C93    C     0.21557   0.41133   0.98514   0.00000  Uiso   1.00
C94    C     0.22946   0.36299   0.93025   0.00000  Uiso   1.00
C95    C     0.16802   0.31468   0.94822   0.00000  Uiso   1.00
C96    C     0.19343   0.27541   0.88999   0.00000  Uiso   1.00
C97    C     0.20228   0.19899   0.81596   0.00000  Uiso   1.00
C98    C     0.31482   0.41494   0.98335   0.00000  Uiso   1.00
C99    C     0.32513   0.41033   0.04597   0.00000  Uiso   1.00
C100   C     0.42240   0.41480   0.03244   0.00000  Uiso   1.00
C101   C     0.56375   0.41908   0.04085   0.00000  Uiso   1.00
C102   C     0.20825   0.46714   0.94905   0.00000  Uiso   1.00
C103   C     0.12897   0.50643   0.98284   0.00000  Uiso   1.00
C104   C     0.13653   0.55485   0.94044   0.00000  Uiso   1.00
C105   C     0.11241   0.64017   0.89560   0.00000  Uiso   1.00
C106   C     0.36997   0.42748   0.84976   0.00000  Uiso   1.00
C107   C     0.31333   0.37175   0.85672   0.00000  Uiso   1.00
C108   C     0.33885   0.33254   0.79845   0.00000  Uiso   1.00
C109   C     0.27745   0.28419   0.81633   0.00000  Uiso   1.00
C110   C     0.39868   0.42371   0.90982   0.00000  Uiso   1.00
C111   C     0.49596   0.42819   0.89620   0.00000  Uiso   1.00
C112   C     0.50642   0.42358   0.95878   0.00000  Uiso   1.00
C113   C     0.29211   0.47591   0.87552   0.00000  Uiso   1.00
C114   C     0.29980   0.52428   0.83306   0.00000  Uiso   1.00
C115   C     0.22055   0.56363   0.86678   0.00000  Uiso   1.00
H116   H     0.15029   0.40451   0.04238   0.00000  Uiso   1.00
H117   H     0.10313   0.30791   0.00513   0.00000  Uiso   1.00
H118   H     0.26022   0.40355   0.10287   0.00000  Uiso   1.00
H119   H     0.06409   0.49963   0.03974   0.00000  Uiso   1.00
H120   H     0.08785   0.20467   0.93141   0.00000  Uiso   1.00
H121   H     0.41908   0.40635   0.13749   0.00000  Uiso   1.00
H122   H     0.00550   0.60895   0.00438   0.00000  Uiso   1.00
H123   H     0.43527   0.43430   0.79252   0.00000  Uiso   1.00
H124   H     0.40375   0.33934   0.74155   0.00000  Uiso   1.00
H125   H     0.56084   0.43498   0.83929   0.00000  Uiso   1.00
H126   H     0.36471   0.53105   0.77616   0.00000  Uiso   1.00
H127   H     0.33185   0.23018   0.71748   0.00000  Uiso   1.00
H128   H     0.66307   0.43186   0.92357   0.00000  Uiso   1.00
H129   H     0.24950   0.63445   0.79045   0.00000  Uiso   1.00
O130   O     0.18400   0.15441   0.79544   0.00000  Uiso   1.00
O131   O     0.61854   0.41901   0.06581   0.00000  Uiso   1.00
O132   O     0.07594   0.68481   0.89117   0.00000  Uiso   1.00
N133   N     0.14959   0.22371   0.88805   0.00000  Uiso   1.00
N134   N     0.45927   0.41226   0.08073   0.00000  Uiso   1.00
N135   N     0.07262   0.60168   0.95629   0.00000  Uiso   1.00
N136   N     0.28089   0.23744   0.77294   0.00000  Uiso   1.00
N137   N     0.59056   0.42599   0.96561   0.00000  Uiso   1.00
N138   N     0.20391   0.61540   0.84117   0.00000  Uiso   1.00
C139   C     0.71557   0.91133   0.98514   0.00000  Uiso   1.00
C140   C     0.72946   0.86299   0.93025   0.00000  Uiso   1.00
C141   C     0.66802   0.81468   0.94822   0.00000  Uiso   1.00
C142   C     0.69343   0.77541   0.88999   0.00000  Uiso   1.00
C143   C     0.70228   0.69899   0.81596   0.00000  Uiso   1.00
C144   C     0.81482   0.91494   0.98335   0.00000  Uiso   1.00
C145   C     0.82513   0.91033   0.04597   0.00000  Uiso   1.00
C146   C     0.92240   0.91480   0.03244   0.00000  Uiso   1.00
C147   C     0.06375   0.91908   0.04085   0.00000  Uiso   1.00
C148   C     0.70825   0.96714   0.94905   0.00000  Uiso   1.00
C149   C     0.62897   0.00643   0.98284   0.00000  Uiso   1.00
C150   C     0.63653   0.05485   0.94044   0.00000  Uiso   1.00
C151   C     0.61241   0.14017   0.89560   0.00000  Uiso   1.00
C152   C     0.86997   0.92748   0.84976   0.00000  Uiso   1.00
C153   C     0.81333   0.87175   0.85672   0.00000  Uiso   1.00
C154   C     0.83885   0.83254   0.79845   0.00000  Uiso   1.00
C155   C     0.77745   0.78419   0.81633   0.00000  Uiso   1.00
C156   C     0.89868   0.92371   0.90982   0.00000  Uiso   1.00
C157   C     0.99596   0.92819   0.89620   0.00000  Uiso   1.00
C158   C     0.00642   0.92358   0.95878   0.00000  Uiso   1.00
C159   C     0.79211   0.97591   0.87552   0.00000  Uiso   1.00
C160   C     0.79980   0.02428   0.83306   0.00000  Uiso   1.00
C161   C     0.72055   0.06363   0.86678   0.00000  Uiso   1.00
H162   H     0.65029   0.90451   0.04238   0.00000  Uiso   1.00
H163   H     0.60313   0.80791   0.00513   0.00000  Uiso   1.00
H164   H     0.76022   0.90355   0.10287   0.00000  Uiso   1.00
H165   H     0.56409   0.99963   0.03974   0.00000  Uiso   1.00
H166   H     0.58785   0.70467   0.93141   0.00000  Uiso   1.00
H167   H     0.91908   0.90635   0.13749   0.00000  Uiso   1.00
H168   H     0.50550   0.10895   0.00438   0.00000  Uiso   1.00
H169   H     0.93527   0.93430   0.79252   0.00000  Uiso   1.00
H170   H     0.90375   0.83934   0.74155   0.00000  Uiso   1.00
H171   H     0.06084   0.93498   0.83929   0.00000  Uiso   1.00
H172   H     0.86471   0.03105   0.77616   0.00000  Uiso   1.00
H173   H     0.83185   0.73018   0.71748   0.00000  Uiso   1.00
H174   H     0.16307   0.93186   0.92357   0.00000  Uiso   1.00
H175   H     0.74950   0.13445   0.79045   0.00000  Uiso   1.00
O176   O     0.68400   0.65441   0.79544   0.00000  Uiso   1.00
O177   O     0.11854   0.91901   0.06581   0.00000  Uiso   1.00
O178   O     0.57594   0.18481   0.89117   0.00000  Uiso   1.00
N179   N     0.64959   0.72371   0.88805   0.00000  Uiso   1.00
N180   N     0.95927   0.91226   0.08073   0.00000  Uiso   1.00
N181   N     0.57262   0.10168   0.95629   0.00000  Uiso   1.00
N182   N     0.78089   0.73744   0.77294   0.00000  Uiso   1.00
N183   N     0.09056   0.92599   0.96561   0.00000  Uiso   1.00
N184   N     0.70391   0.11540   0.84117   0.00000  Uiso   1.00
C185   C     0.21557   0.58867   0.48514   0.00000  Uiso   1.00
C186   C     0.22946   0.63701   0.43025   0.00000  Uiso   1.00
C187   C     0.16802   0.68532   0.44822   0.00000  Uiso   1.00
C188   C     0.19343   0.72459   0.38999   0.00000  Uiso   1.00
C189   C     0.20228   0.80101   0.31596   0.00000  Uiso   1.00
C190   C     0.31482   0.58506   0.48335   0.00000  Uiso   1.00
C191   C     0.32513   0.58967   0.54597   0.00000  Uiso   1.00
C192   C     0.42240   0.58520   0.53244   0.00000  Uiso   1.00
C193   C     0.56375   0.58092   0.54085   0.00000  Uiso   1.00
C194   C     0.20825   0.53286   0.44905   0.00000  Uiso   1.00
C195   C     0.12897   0.49357   0.48284   0.00000  Uiso   1.00
C196   C     0.13653   0.44515   0.44044   0.00000  Uiso   1.00
C197   C     0.11241   0.35983   0.39560   0.00000  Uiso   1.00
C198   C     0.36997   0.57252   0.34976   0.00000  Uiso   1.00
C199   C     0.31333   0.62825   0.35672   0.00000  Uiso   1.00
C200   C     0.33885   0.66746   0.29845   0.00000  Uiso   1.00
C201   C     0.27745   0.71581   0.31633   0.00000  Uiso   1.00
C202   C     0.39868   0.57629   0.40982   0.00000  Uiso   1.00
C203   C     0.49596   0.57181   0.39620   0.00000  Uiso   1.00
C204   C     0.50642   0.57642   0.45878   0.00000  Uiso   1.00
C205   C     0.29211   0.52409   0.37552   0.00000  Uiso   1.00
C206   C     0.29980   0.47572   0.33306   0.00000  Uiso   1.00
C207   C     0.22055   0.43637   0.36678   0.00000  Uiso   1.00
H208   H     0.15029   0.59549   0.54238   0.00000  Uiso   1.00
H209   H     0.10313   0.69209   0.50513   0.00000  Uiso   1.00
H210   H     0.26022   0.59645   0.60287   0.00000  Uiso   1.00
H211   H     0.06409   0.50037   0.53974   0.00000  Uiso   1.00
H212   H     0.08785   0.79533   0.43141   0.00000  Uiso   1.00
H213   H     0.41908   0.59365   0.63749   0.00000  Uiso   1.00
H214   H     0.00550   0.39105   0.50438   0.00000  Uiso   1.00
H215   H     0.43527   0.56570   0.29252   0.00000  Uiso   1.00
H216   H     0.40375   0.66066   0.24155   0.00000  Uiso   1.00
H217   H     0.56084   0.56502   0.33929   0.00000  Uiso   1.00
H218   H     0.36471   0.46895   0.27616   0.00000  Uiso   1.00
H219   H     0.33185   0.76982   0.21748   0.00000  Uiso   1.00
H220   H     0.66307   0.56814   0.42357   0.00000  Uiso   1.00
H221   H     0.24950   0.36555   0.29045   0.00000  Uiso   1.00
O222   O     0.18400   0.84559   0.29544   0.00000  Uiso   1.00
O223   O     0.61854   0.58099   0.56581   0.00000  Uiso   1.00
O224   O     0.07594   0.31519   0.39117   0.00000  Uiso   1.00
N225   N     0.14959   0.77629   0.38805   0.00000  Uiso   1.00
N226   N     0.45927   0.58774   0.58073   0.00000  Uiso   1.00
N227   N     0.07262   0.39832   0.45629   0.00000  Uiso   1.00
N228   N     0.28089   0.76256   0.27294   0.00000  Uiso   1.00
N229   N     0.59056   0.57401   0.46561   0.00000  Uiso   1.00
N230   N     0.20391   0.38460   0.34117   0.00000  Uiso   1.00
C231   C     0.71557   0.08867   0.48514   0.00000  Uiso   1.00
C232   C     0.72946   0.13701   0.43025   0.00000  Uiso   1.00
C233   C     0.66802   0.18532   0.44822   0.00000  Uiso   1.00
C234   C     0.69343   0.22459   0.38999   0.00000  Uiso   1.00
C235   C     0.70228   0.30101   0.31596   0.00000  Uiso   1.00
C236   C     0.81482   0.08506   0.48335   0.00000  Uiso   1.00
C237   C     0.82513   0.08967   0.54597   0.00000  Uiso   1.00
C238   C     0.92240   0.08520   0.53244   0.00000  Uiso   1.00
C239   C     0.06375   0.08092   0.54085   0.00000  Uiso   1.00
C240   C     0.70825   0.03286   0.44905   0.00000  Uiso   1.00
C241   C     0.62897   0.99357   0.48284   0.00000  Uiso   1.00
C242   C     0.63653   0.94515   0.44044   0.00000  Uiso   1.00
C243   C     0.61241   0.85983   0.39560   0.00000  Uiso   1.00
C244   C     0.86997   0.07252   0.34976   0.00000  Uiso   1.00
C245   C     0.81333   0.12825   0.35672   0.00000  Uiso   1.00
C246   C     0.83885   0.16746   0.29845   0.00000  Uiso   1.00
C247   C     0.77745   0.21581   0.31633   0.00000  Uiso   1.00
C248   C     0.89868   0.07629   0.40982   0.00000  Uiso   1.00
C249   C     0.99596   0.07181   0.39620   0.00000  Uiso   1.00
C250   C     0.00642   0.07642   0.45878   0.00000  Uiso   1.00
C251   C     0.79211   0.02409   0.37552   0.00000  Uiso   1.00
C252   C     0.79980   0.97572   0.33306   0.00000  Uiso   1.00
C253   C     0.72055   0.93637   0.36678   0.00000  Uiso   1.00
H254   H     0.65029   0.09549   0.54238   0.00000  Uiso   1.00
H255   H     0.60313   0.19209   0.50513   0.00000  Uiso   1.00
H256   H     0.76022   0.09645   0.60287   0.00000  Uiso   1.00
H257   H     0.56409   0.00037   0.53974   0.00000  Uiso   1.00
H258   H     0.58785   0.29533   0.43141   0.00000  Uiso   1.00
H259   H     0.91908   0.09365   0.63749   0.00000  Uiso   1.00
H260   H     0.50550   0.89105   0.50438   0.00000  Uiso   1.00
H261   H     0.93527   0.06570   0.29252   0.00000  Uiso   1.00
H262   H     0.90375   0.16066   0.24155   0.00000  Uiso   1.00
H263   H     0.06084   0.06502   0.33929   0.00000  Uiso   1.00
H264   H     0.86471   0.96895   0.27616   0.00000  Uiso   1.00
H265   H     0.83185   0.26982   0.21748   0.00000  Uiso   1.00
H266   H     0.16307   0.06814   0.42357   0.00000  Uiso   1.00
H267   H     0.74950   0.86555   0.29045   0.00000  Uiso   1.00
O268   O     0.68400   0.34559   0.29544   0.00000  Uiso   1.00
O269   O     0.11854   0.08099   0.56581   0.00000  Uiso   1.00
O270   O     0.57594   0.81519   0.39117   0.00000  Uiso   1.00
N271   N     0.64959   0.27629   0.38805   0.00000  Uiso   1.00
N272   N     0.95927   0.08774   0.58073   0.00000  Uiso   1.00
N273   N     0.57262   0.89832   0.45629   0.00000  Uiso   1.00
N274   N     0.78089   0.26256   0.27294   0.00000  Uiso   1.00
N275   N     0.09056   0.07401   0.46561   0.00000  Uiso   1.00
N276   N     0.70391   0.88460   0.34117   0.00000  Uiso   1.00
C277   C     0.78443   0.58867   0.01486   0.00000  Uiso   1.00
C278   C     0.77054   0.63701   0.06975   0.00000  Uiso   1.00
C279   C     0.83198   0.68532   0.05178   0.00000  Uiso   1.00
C280   C     0.80657   0.72459   0.11001   0.00000  Uiso   1.00
C281   C     0.79772   0.80101   0.18404   0.00000  Uiso   1.00
C282   C     0.68518   0.58506   0.01665   0.00000  Uiso   1.00
C283   C     0.67487   0.58967   0.95403   0.00000  Uiso   1.00
C284   C     0.57760   0.58520   0.96756   0.00000  Uiso   1.00
C285   C     0.43625   0.58092   0.95915   0.00000  Uiso   1.00
C286   C     0.79175   0.53286   0.05095   0.00000  Uiso   1.00
C287   C     0.87103   0.49357   0.01716   0.00000  Uiso   1.00
C288   C     0.86347   0.44515   0.05956   0.00000  Uiso   1.00
C289   C     0.88759   0.35983   0.10440   0.00000  Uiso   1.00
C290   C     0.63003   0.57252   0.15024   0.00000  Uiso   1.00
C291   C     0.68667   0.62825   0.14328   0.00000  Uiso   1.00
C292   C     0.66115   0.66746   0.20155   0.00000  Uiso   1.00
C293   C     0.72255   0.71581   0.18367   0.00000  Uiso   1.00
C294   C     0.60132   0.57629   0.09018   0.00000  Uiso   1.00
C295   C     0.50404   0.57181   0.10380   0.00000  Uiso   1.00
C296   C     0.49358   0.57642   0.04122   0.00000  Uiso   1.00
C297   C     0.70789   0.52409   0.12448   0.00000  Uiso   1.00
C298   C     0.70020   0.47572   0.16694   0.00000  Uiso   1.00
C299   C     0.77945   0.43637   0.13322   0.00000  Uiso   1.00
H300   H     0.84971   0.59549   0.95762   0.00000  Uiso   1.00
H301   H     0.89687   0.69209   0.99487   0.00000  Uiso   1.00
H302   H     0.73978   0.59645   0.89713   0.00000  Uiso   1.00
H303   H     0.93591   0.50037   0.96026   0.00000  Uiso   1.00
H304   H     0.91215   0.79533   0.06859   0.00000  Uiso   1.00
H305   H     0.58092   0.59365   0.86251   0.00000  Uiso   1.00
H306   H     0.99450   0.39105   0.99562   0.00000  Uiso   1.00
H307   H     0.56473   0.56570   0.20748   0.00000  Uiso   1.00
H308   H     0.59625   0.66066   0.25845   0.00000  Uiso   1.00
H309   H     0.43916   0.56502   0.16071   0.00000  Uiso   1.00
H310   H     0.63529   0.46895   0.22384   0.00000  Uiso   1.00
H311   H     0.66815   0.76982   0.28252   0.00000  Uiso   1.00
H312   H     0.33693   0.56814   0.07643   0.00000  Uiso   1.00
H313   H     0.75050   0.36555   0.20955   0.00000  Uiso   1.00
O314   O     0.81600   0.84559   0.20456   0.00000  Uiso   1.00
O315   O     0.38146   0.58099   0.93419   0.00000  Uiso   1.00
O316   O     0.92406   0.31519   0.10883   0.00000  Uiso   1.00
N317   N     0.85041   0.77629   0.11195   0.00000  Uiso   1.00
N318   N     0.54073   0.58774   0.91927   0.00000  Uiso   1.00
N319   N     0.92738   0.39832   0.04371   0.00000  Uiso   1.00
N320   N     0.71911   0.76256   0.22706   0.00000  Uiso   1.00
N321   N     0.40944   0.57401   0.03439   0.00000  Uiso   1.00
N322   N     0.79609   0.38460   0.15883   0.00000  Uiso   1.00
C323   C     0.28443   0.08867   0.01486   0.00000  Uiso   1.00
C324   C     0.27054   0.13701   0.06975   0.00000  Uiso   1.00
C325   C     0.33198   0.18532   0.05178   0.00000  Uiso   1.00
C326   C     0.30657   0.22459   0.11001   0.00000  Uiso   1.00
C327   C     0.29772   0.30101   0.18404   0.00000  Uiso   1.00
C328   C     0.18518   0.08506   0.01665   0.00000  Uiso   1.00
C329   C     0.17487   0.08967   0.95403   0.00000  Uiso   1.00
C330   C     0.07760   0.08520   0.96756   0.00000  Uiso   1.00
C331   C     0.93625   0.08092   0.95915   0.00000  Uiso   1.00
C332   C     0.29175   0.03286   0.05095   0.00000  Uiso   1.00
C333   C     0.37103   0.99357   0.01716   0.00000  Uiso   1.00
C334   C     0.36347   0.94515   0.05956   0.00000  Uiso   1.00
C335   C     0.38759   0.85983   0.10440   0.00000  Uiso   1.00
C336   C     0.13003   0.07252   0.15024   0.00000  Uiso   1.00
C337   C     0.18667   0.12825   0.14328   0.00000  Uiso   1.00
C338   C     0.16115   0.16746   0.20155   0.00000  Uiso   1.00
C339   C     0.22255   0.21581   0.18367   0.00000  Uiso   1.00
C340   C     0.10132   0.07629   0.09018   0.00000  Uiso   1.00
C341   C     0.00404   0.07181   0.10380   0.00000  Uiso   1.00
C342   C     0.99358   0.07642   0.04122   0.00000  Uiso   1.00
C343   C     0.20789   0.02409   0.12448   0.00000  Uiso   1.00
C344   C     0.20020   0.97572   0.16694   0.00000  Uiso   1.00
C345   C     0.27945   0.93637   0.13322   0.00000  Uiso   1.00
H346   H     0.34971   0.09549   0.95762   0.00000  Uiso   1.00
H347   H     0.39687   0.19209   0.99487   0.00000  Uiso   1.00
H348   H     0.23978   0.09645   0.89713   0.00000  Uiso   1.00
H349   H     0.43591   0.00037   0.96026   0.00000  Uiso   1.00
H350   H     0.41215   0.29533   0.06859   0.00000  Uiso   1.00
H351   H     0.08092   0.09365   0.86251   0.00000  Uiso   1.00
H352   H     0.49450   0.89105   0.99562   0.00000  Uiso   1.00
H353   H     0.06473   0.06570   0.20748   0.00000  Uiso   1.00
H354   H     0.09625   0.16066   0.25845   0.00000  Uiso   1.00
H355   H     0.93916   0.06502   0.16071   0.00000  Uiso   1.00
H356   H     0.13529   0.96895   0.22384   0.00000  Uiso   1.00
H357   H     0.16815   0.26982   0.28252   0.00000  Uiso   1.00
H358   H     0.83693   0.06814   0.07643   0.00000  Uiso   1.00
H359   H     0.25050   0.86555   0.20955   0.00000  Uiso   1.00
O360   O     0.31600   0.34559   0.20456   0.00000  Uiso   1.00
O361   O     0.88146   0.08099   0.93419   0.00000  Uiso   1.00
O362   O     0.42406   0.81519   0.10883   0.00000  Uiso   1.00
N363   N     0.35041   0.27629   0.11195   0.00000  Uiso   1.00
N364   N     0.04073   0.08774   0.91927   0.00000  Uiso   1.00
N365   N     0.42738   0.89832   0.04371   0.00000  Uiso   1.00
N366   N     0.21911   0.26256   0.22706   0.00000  Uiso   1.00
N367   N     0.90944   0.07401   0.03439   0.00000  Uiso   1.00
N368   N     0.29609   0.88460   0.15883   0.00000  Uiso   1.00
