data_job_04583
_audit_creation_date              2018-12-19
_audit_creation_method            'Materials Studio'
_symmetry_space_group_name_H-M    'P1'
_symmetry_Int_Tables_number       1
_symmetry_cell_setting            triclinic
loop_
_symmetry_equiv_pos_as_xyz
  x,y,z
_cell_length_a                    12.7999
_cell_length_b                    11.8236
_cell_length_c                    35.8155
_cell_angle_alpha                 90.0000
_cell_angle_beta                  95.1472
_cell_angle_gamma                 90.0000
loop_
_atom_site_label
_atom_site_type_symbol
_atom_site_fract_x
_atom_site_fract_y
_atom_site_fract_z
_atom_site_U_iso_or_equiv
_atom_site_adp_type
_atom_site_occupancy
C1     C     0.21300   0.51231   0.08286   0.00000  Uiso   1.00
C2     C     0.10765   0.45223   0.07588   0.00000  Uiso   1.00
C3     C     0.06875   0.40210   0.04245   0.00000  Uiso   1.00
C4     C     0.97073   0.35146   0.04173   0.00000  Uiso   1.00
C5     C     0.81578   0.25828   0.02607   0.00000  Uiso   1.00
C6     C     0.18843   0.63109   0.09617   0.00000  Uiso   1.00
C7     C     0.21748   0.73135   0.07981   0.00000  Uiso   1.00
C8     C     0.18748   0.83128   0.09618   0.00000  Uiso   1.00
C9     C     0.15803   0.01579   0.11205   0.00000  Uiso   1.00
C10    C     0.27102   0.45308   0.11641   0.00000  Uiso   1.00
C11    C     0.36953   0.40369   0.11706   0.00000  Uiso   1.00
C12    C     0.40907   0.35377   0.15047   0.00000  Uiso   1.00
C13    C     0.50785   0.26189   0.19775   0.00000  Uiso   1.00
C14    C     0.10808   0.51152   0.14104   0.00000  Uiso   1.00
C15    C     0.05066   0.45180   0.10748   0.00000  Uiso   1.00
C16    C     0.95267   0.40122   0.10681   0.00000  Uiso   1.00
C17    C     0.91364   0.35102   0.07339   0.00000  Uiso   1.00
C18    C     0.13145   0.63066   0.12777   0.00000  Uiso   1.00
C19    C     0.10140   0.73047   0.14418   0.00000  Uiso   1.00
C20    C     0.13039   0.83085   0.12784   0.00000  Uiso   1.00
C21    C     0.21404   0.45265   0.14801   0.00000  Uiso   1.00
C22    C     0.25344   0.40280   0.18143   0.00000  Uiso   1.00
C23    C     0.35198   0.35334   0.18213   0.00000  Uiso   1.00
H24    H     0.25737   0.51266   0.05826   0.00000  Uiso   1.00
H25    H     0.11287   0.40246   0.01799   0.00000  Uiso   1.00
H26    H     0.26159   0.73166   0.05535   0.00000  Uiso   1.00
H27    H     0.41360   0.40404   0.09260   0.00000  Uiso   1.00
H28    H     0.92753   0.28014   0.98728   0.00000  Uiso   1.00
H29    H     0.24114   0.97427   0.06607   0.00000  Uiso   1.00
H30    H     0.56169   0.28343   0.14460   0.00000  Uiso   1.00
H31    H     0.06372   0.51118   0.16565   0.00000  Uiso   1.00
H32    H     0.90859   0.40090   0.13127   0.00000  Uiso   1.00
H33    H     0.05731   0.73010   0.16863   0.00000  Uiso   1.00
H34    H     0.20932   0.40248   0.20587   0.00000  Uiso   1.00
H35    H     0.76172   0.27887   0.07922   0.00000  Uiso   1.00
H36    H     0.07533   0.97301   0.15801   0.00000  Uiso   1.00
H37    H     0.39588   0.28216   0.23654   0.00000  Uiso   1.00
O38    O     0.74605   0.20702   0.00870   0.00000  Uiso   1.00
O39    O     0.15752   0.11769   0.11206   0.00000  Uiso   1.00
O40    O     0.57807   0.21132   0.21510   0.00000  Uiso   1.00
N41    N     0.90980   0.29495   0.01364   0.00000  Uiso   1.00
N42    N     0.20299   0.94393   0.08729   0.00000  Uiso   1.00
N43    N     0.50270   0.29807   0.16072   0.00000  Uiso   1.00
N44    N     0.82058   0.29427   0.06311   0.00000  Uiso   1.00
N45    N     0.11377   0.94324   0.13677   0.00000  Uiso   1.00
N46    N     0.41348   0.29739   0.21020   0.00000  Uiso   1.00
C47    C     0.71298   0.04358   0.58339   0.00000  Uiso   1.00
C48    C     0.60740   0.98387   0.57657   0.00000  Uiso   1.00
C49    C     0.56801   0.93373   0.54320   0.00000  Uiso   1.00
C50    C     0.46985   0.88346   0.54264   0.00000  Uiso   1.00
C51    C     0.31450   0.79079   0.52722   0.00000  Uiso   1.00
C52    C     0.68893   0.16252   0.59669   0.00000  Uiso   1.00
C53    C     0.71811   0.26259   0.58023   0.00000  Uiso   1.00
C54    C     0.68861   0.36271   0.59661   0.00000  Uiso   1.00
C55    C     0.65991   0.54741   0.61244   0.00000  Uiso   1.00
C56    C     0.77115   0.98429   0.61689   0.00000  Uiso   1.00
C57    C     0.86947   0.93453   0.61743   0.00000  Uiso   1.00
C58    C     0.90920   0.88462   0.65082   0.00000  Uiso   1.00
C59    C     0.00815   0.79259   0.69802   0.00000  Uiso   1.00
C60    C     0.60871   0.04347   0.64173   0.00000  Uiso   1.00
C61    C     0.55076   0.98381   0.60826   0.00000  Uiso   1.00
C62    C     0.45264   0.93359   0.60775   0.00000  Uiso   1.00
C63    C     0.41312   0.88339   0.57438   0.00000  Uiso   1.00
C64    C     0.63230   0.16246   0.62837   0.00000  Uiso   1.00
C65    C     0.60275   0.26246   0.64478   0.00000  Uiso   1.00
C66    C     0.63187   0.36265   0.62835   0.00000  Uiso   1.00
C67    C     0.71452   0.98423   0.64858   0.00000  Uiso   1.00
C68    C     0.75410   0.93440   0.68198   0.00000  Uiso   1.00
C69    C     0.85246   0.88456   0.68257   0.00000  Uiso   1.00
H70    H     0.75707   0.04364   0.55872   0.00000  Uiso   1.00
H71    H     0.61185   0.93380   0.51868   0.00000  Uiso   1.00
H72    H     0.76195   0.26261   0.55571   0.00000  Uiso   1.00
H73    H     0.91327   0.93460   0.59290   0.00000  Uiso   1.00
H74    H     0.42586   0.81203   0.48826   0.00000  Uiso   1.00
H75    H     0.74237   0.50535   0.56635   0.00000  Uiso   1.00
H76    H     0.06148   0.81367   0.64478   0.00000  Uiso   1.00
H77    H     0.56462   0.04342   0.66640   0.00000  Uiso   1.00
H78    H     0.40884   0.93356   0.63227   0.00000  Uiso   1.00
H79    H     0.55893   0.26238   0.66930   0.00000  Uiso   1.00
H80    H     0.71026   0.93436   0.70649   0.00000  Uiso   1.00
H81    H     0.26108   0.81184   0.58046   0.00000  Uiso   1.00
H82    H     0.57760   0.50516   0.65855   0.00000  Uiso   1.00
H83    H     0.89670   0.81348   0.73697   0.00000  Uiso   1.00
O84    O     0.24445   0.73971   0.50996   0.00000  Uiso   1.00
O85    O     0.65972   0.64931   0.61241   0.00000  Uiso   1.00
O86    O     0.07837   0.74184   0.71531   0.00000  Uiso   1.00
N87    N     0.40847   0.82705   0.51465   0.00000  Uiso   1.00
N88    N     0.70438   0.47525   0.58765   0.00000  Uiso   1.00
N89    N     0.00272   0.82862   0.66098   0.00000  Uiso   1.00
N90    N     0.31980   0.82694   0.56426   0.00000  Uiso   1.00
N91    N     0.61571   0.47515   0.63726   0.00000  Uiso   1.00
N92    N     0.91406   0.82851   0.71058   0.00000  Uiso   1.00
C93    C     0.78700   0.51231   0.41714   0.00000  Uiso   1.00
C94    C     0.89235   0.45223   0.42412   0.00000  Uiso   1.00
C95    C     0.93125   0.40210   0.45755   0.00000  Uiso   1.00
C96    C     0.02927   0.35146   0.45827   0.00000  Uiso   1.00
C97    C     0.18422   0.25828   0.47393   0.00000  Uiso   1.00
C98    C     0.81157   0.63109   0.40383   0.00000  Uiso   1.00
C99    C     0.78252   0.73135   0.42019   0.00000  Uiso   1.00
C100   C     0.81252   0.83128   0.40382   0.00000  Uiso   1.00
C101   C     0.84197   0.01579   0.38795   0.00000  Uiso   1.00
C102   C     0.72898   0.45308   0.38359   0.00000  Uiso   1.00
C103   C     0.63047   0.40369   0.38294   0.00000  Uiso   1.00
C104   C     0.59093   0.35377   0.34953   0.00000  Uiso   1.00
C105   C     0.49215   0.26189   0.30225   0.00000  Uiso   1.00
C106   C     0.89192   0.51152   0.35896   0.00000  Uiso   1.00
C107   C     0.94934   0.45180   0.39252   0.00000  Uiso   1.00
C108   C     0.04733   0.40122   0.39319   0.00000  Uiso   1.00
C109   C     0.08636   0.35102   0.42661   0.00000  Uiso   1.00
C110   C     0.86855   0.63066   0.37223   0.00000  Uiso   1.00
C111   C     0.89860   0.73047   0.35582   0.00000  Uiso   1.00
C112   C     0.86961   0.83085   0.37216   0.00000  Uiso   1.00
C113   C     0.78596   0.45265   0.35199   0.00000  Uiso   1.00
C114   C     0.74656   0.40280   0.31857   0.00000  Uiso   1.00
C115   C     0.64802   0.35334   0.31787   0.00000  Uiso   1.00
H116   H     0.74263   0.51266   0.44174   0.00000  Uiso   1.00
H117   H     0.88713   0.40246   0.48201   0.00000  Uiso   1.00
H118   H     0.73841   0.73166   0.44465   0.00000  Uiso   1.00
H119   H     0.58640   0.40404   0.40740   0.00000  Uiso   1.00
H120   H     0.07247   0.28014   0.51272   0.00000  Uiso   1.00
H121   H     0.75886   0.97427   0.43393   0.00000  Uiso   1.00
H122   H     0.43831   0.28343   0.35540   0.00000  Uiso   1.00
H123   H     0.93628   0.51118   0.33435   0.00000  Uiso   1.00
H124   H     0.09141   0.40090   0.36873   0.00000  Uiso   1.00
H125   H     0.94269   0.73010   0.33137   0.00000  Uiso   1.00
H126   H     0.79068   0.40248   0.29413   0.00000  Uiso   1.00
H127   H     0.23828   0.27887   0.42078   0.00000  Uiso   1.00
H128   H     0.92467   0.97301   0.34199   0.00000  Uiso   1.00
H129   H     0.60412   0.28216   0.26346   0.00000  Uiso   1.00
O130   O     0.25395   0.20702   0.49130   0.00000  Uiso   1.00
O131   O     0.84248   0.11769   0.38794   0.00000  Uiso   1.00
O132   O     0.42193   0.21132   0.28490   0.00000  Uiso   1.00
N133   N     0.09020   0.29495   0.48636   0.00000  Uiso   1.00
N134   N     0.79701   0.94393   0.41271   0.00000  Uiso   1.00
N135   N     0.49730   0.29807   0.33928   0.00000  Uiso   1.00
N136   N     0.17942   0.29427   0.43689   0.00000  Uiso   1.00
N137   N     0.88623   0.94324   0.36323   0.00000  Uiso   1.00
N138   N     0.58652   0.29739   0.28980   0.00000  Uiso   1.00
C139   C     0.28702   0.04358   0.91661   0.00000  Uiso   1.00
C140   C     0.39260   0.98387   0.92343   0.00000  Uiso   1.00
C141   C     0.43199   0.93373   0.95680   0.00000  Uiso   1.00
C142   C     0.53015   0.88346   0.95736   0.00000  Uiso   1.00
C143   C     0.68550   0.79079   0.97278   0.00000  Uiso   1.00
C144   C     0.31107   0.16252   0.90331   0.00000  Uiso   1.00
C145   C     0.28189   0.26259   0.91977   0.00000  Uiso   1.00
C146   C     0.31139   0.36271   0.90339   0.00000  Uiso   1.00
C147   C     0.34009   0.54741   0.88756   0.00000  Uiso   1.00
C148   C     0.22885   0.98429   0.88311   0.00000  Uiso   1.00
C149   C     0.13053   0.93453   0.88257   0.00000  Uiso   1.00
C150   C     0.09080   0.88462   0.84918   0.00000  Uiso   1.00
C151   C     0.99185   0.79259   0.80198   0.00000  Uiso   1.00
C152   C     0.39129   0.04347   0.85827   0.00000  Uiso   1.00
C153   C     0.44924   0.98381   0.89174   0.00000  Uiso   1.00
C154   C     0.54736   0.93359   0.89225   0.00000  Uiso   1.00
C155   C     0.58688   0.88339   0.92562   0.00000  Uiso   1.00
C156   C     0.36770   0.16246   0.87163   0.00000  Uiso   1.00
C157   C     0.39725   0.26246   0.85522   0.00000  Uiso   1.00
C158   C     0.36813   0.36265   0.87165   0.00000  Uiso   1.00
C159   C     0.28548   0.98423   0.85142   0.00000  Uiso   1.00
C160   C     0.24590   0.93440   0.81802   0.00000  Uiso   1.00
C161   C     0.14754   0.88456   0.81743   0.00000  Uiso   1.00
H162   H     0.24293   0.04364   0.94128   0.00000  Uiso   1.00
H163   H     0.38815   0.93380   0.98132   0.00000  Uiso   1.00
H164   H     0.23805   0.26261   0.94429   0.00000  Uiso   1.00
H165   H     0.08673   0.93460   0.90710   0.00000  Uiso   1.00
H166   H     0.57414   0.81203   0.01174   0.00000  Uiso   1.00
H167   H     0.25763   0.50535   0.93365   0.00000  Uiso   1.00
H168   H     0.93852   0.81367   0.85522   0.00000  Uiso   1.00
H169   H     0.43538   0.04342   0.83360   0.00000  Uiso   1.00
H170   H     0.59116   0.93356   0.86773   0.00000  Uiso   1.00
H171   H     0.44107   0.26238   0.83070   0.00000  Uiso   1.00
H172   H     0.28974   0.93436   0.79351   0.00000  Uiso   1.00
H173   H     0.73892   0.81184   0.91954   0.00000  Uiso   1.00
H174   H     0.42240   0.50516   0.84145   0.00000  Uiso   1.00
H175   H     0.10330   0.81348   0.76303   0.00000  Uiso   1.00
O176   O     0.75555   0.73971   0.99004   0.00000  Uiso   1.00
O177   O     0.34028   0.64931   0.88759   0.00000  Uiso   1.00
O178   O     0.92163   0.74184   0.78469   0.00000  Uiso   1.00
N179   N     0.59153   0.82705   0.98535   0.00000  Uiso   1.00
N180   N     0.29562   0.47525   0.91235   0.00000  Uiso   1.00
N181   N     0.99728   0.82862   0.83902   0.00000  Uiso   1.00
N182   N     0.68020   0.82694   0.93574   0.00000  Uiso   1.00
N183   N     0.38429   0.47515   0.86274   0.00000  Uiso   1.00
N184   N     0.08594   0.82851   0.78942   0.00000  Uiso   1.00
C185   C     0.78700   0.48769   0.91714   0.00000  Uiso   1.00
C186   C     0.89235   0.54777   0.92412   0.00000  Uiso   1.00
C187   C     0.93125   0.59790   0.95755   0.00000  Uiso   1.00
C188   C     0.02927   0.64854   0.95827   0.00000  Uiso   1.00
C189   C     0.18422   0.74172   0.97393   0.00000  Uiso   1.00
C190   C     0.81157   0.36891   0.90383   0.00000  Uiso   1.00
C191   C     0.78252   0.26865   0.92019   0.00000  Uiso   1.00
C192   C     0.81252   0.16872   0.90382   0.00000  Uiso   1.00
C193   C     0.84197   0.98421   0.88795   0.00000  Uiso   1.00
C194   C     0.72898   0.54692   0.88359   0.00000  Uiso   1.00
C195   C     0.63047   0.59631   0.88294   0.00000  Uiso   1.00
C196   C     0.59093   0.64623   0.84953   0.00000  Uiso   1.00
C197   C     0.49215   0.73811   0.80225   0.00000  Uiso   1.00
C198   C     0.89192   0.48848   0.85896   0.00000  Uiso   1.00
C199   C     0.94934   0.54820   0.89252   0.00000  Uiso   1.00
C200   C     0.04733   0.59878   0.89319   0.00000  Uiso   1.00
C201   C     0.08636   0.64898   0.92661   0.00000  Uiso   1.00
C202   C     0.86855   0.36934   0.87223   0.00000  Uiso   1.00
C203   C     0.89860   0.26953   0.85582   0.00000  Uiso   1.00
C204   C     0.86961   0.16915   0.87216   0.00000  Uiso   1.00
C205   C     0.78596   0.54735   0.85199   0.00000  Uiso   1.00
C206   C     0.74656   0.59720   0.81857   0.00000  Uiso   1.00
C207   C     0.64802   0.64666   0.81787   0.00000  Uiso   1.00
H208   H     0.74263   0.48734   0.94174   0.00000  Uiso   1.00
H209   H     0.88713   0.59754   0.98201   0.00000  Uiso   1.00
H210   H     0.73841   0.26834   0.94465   0.00000  Uiso   1.00
H211   H     0.58640   0.59596   0.90740   0.00000  Uiso   1.00
H212   H     0.07247   0.71986   0.01272   0.00000  Uiso   1.00
H213   H     0.75886   0.02573   0.93393   0.00000  Uiso   1.00
H214   H     0.43831   0.71657   0.85540   0.00000  Uiso   1.00
H215   H     0.93628   0.48882   0.83435   0.00000  Uiso   1.00
H216   H     0.09141   0.59910   0.86873   0.00000  Uiso   1.00
H217   H     0.94269   0.26990   0.83137   0.00000  Uiso   1.00
H218   H     0.79068   0.59752   0.79413   0.00000  Uiso   1.00
H219   H     0.23828   0.72113   0.92078   0.00000  Uiso   1.00
H220   H     0.92467   0.02699   0.84199   0.00000  Uiso   1.00
H221   H     0.60412   0.71784   0.76346   0.00000  Uiso   1.00
O222   O     0.25395   0.79298   0.99130   0.00000  Uiso   1.00
O223   O     0.84248   0.88231   0.88794   0.00000  Uiso   1.00
O224   O     0.42193   0.78868   0.78490   0.00000  Uiso   1.00
N225   N     0.09020   0.70505   0.98636   0.00000  Uiso   1.00
N226   N     0.79701   0.05607   0.91271   0.00000  Uiso   1.00
N227   N     0.49730   0.70193   0.83928   0.00000  Uiso   1.00
N228   N     0.17942   0.70573   0.93689   0.00000  Uiso   1.00
N229   N     0.88623   0.05676   0.86323   0.00000  Uiso   1.00
N230   N     0.58652   0.70261   0.78980   0.00000  Uiso   1.00
C231   C     0.28702   0.95642   0.41661   0.00000  Uiso   1.00
C232   C     0.39260   0.01613   0.42343   0.00000  Uiso   1.00
C233   C     0.43199   0.06627   0.45680   0.00000  Uiso   1.00
C234   C     0.53015   0.11654   0.45736   0.00000  Uiso   1.00
C235   C     0.68550   0.20921   0.47278   0.00000  Uiso   1.00
C236   C     0.31107   0.83748   0.40331   0.00000  Uiso   1.00
C237   C     0.28189   0.73741   0.41977   0.00000  Uiso   1.00
C238   C     0.31139   0.63729   0.40339   0.00000  Uiso   1.00
C239   C     0.34009   0.45259   0.38756   0.00000  Uiso   1.00
C240   C     0.22885   0.01571   0.38311   0.00000  Uiso   1.00
C241   C     0.13053   0.06547   0.38257   0.00000  Uiso   1.00
C242   C     0.09080   0.11538   0.34918   0.00000  Uiso   1.00
C243   C     0.99185   0.20741   0.30198   0.00000  Uiso   1.00
C244   C     0.39129   0.95653   0.35827   0.00000  Uiso   1.00
C245   C     0.44924   0.01619   0.39174   0.00000  Uiso   1.00
C246   C     0.54736   0.06641   0.39225   0.00000  Uiso   1.00
C247   C     0.58688   0.11661   0.42562   0.00000  Uiso   1.00
C248   C     0.36770   0.83754   0.37163   0.00000  Uiso   1.00
C249   C     0.39725   0.73754   0.35522   0.00000  Uiso   1.00
C250   C     0.36813   0.63735   0.37165   0.00000  Uiso   1.00
C251   C     0.28548   0.01577   0.35142   0.00000  Uiso   1.00
C252   C     0.24590   0.06560   0.31802   0.00000  Uiso   1.00
C253   C     0.14754   0.11544   0.31743   0.00000  Uiso   1.00
H254   H     0.24293   0.95636   0.44128   0.00000  Uiso   1.00
H255   H     0.38815   0.06620   0.48132   0.00000  Uiso   1.00
H256   H     0.23805   0.73739   0.44429   0.00000  Uiso   1.00
H257   H     0.08673   0.06540   0.40710   0.00000  Uiso   1.00
H258   H     0.57414   0.18797   0.51174   0.00000  Uiso   1.00
H259   H     0.25763   0.49465   0.43365   0.00000  Uiso   1.00
H260   H     0.93852   0.18633   0.35522   0.00000  Uiso   1.00
H261   H     0.43538   0.95658   0.33360   0.00000  Uiso   1.00
H262   H     0.59116   0.06644   0.36773   0.00000  Uiso   1.00
H263   H     0.44107   0.73762   0.33070   0.00000  Uiso   1.00
H264   H     0.28974   0.06564   0.29351   0.00000  Uiso   1.00
H265   H     0.73892   0.18816   0.41954   0.00000  Uiso   1.00
H266   H     0.42240   0.49484   0.34145   0.00000  Uiso   1.00
H267   H     0.10330   0.18652   0.26303   0.00000  Uiso   1.00
O268   O     0.75555   0.26029   0.49004   0.00000  Uiso   1.00
O269   O     0.34028   0.35069   0.38759   0.00000  Uiso   1.00
O270   O     0.92163   0.25816   0.28469   0.00000  Uiso   1.00
N271   N     0.59153   0.17295   0.48535   0.00000  Uiso   1.00
N272   N     0.29562   0.52475   0.41235   0.00000  Uiso   1.00
N273   N     0.99728   0.17138   0.33902   0.00000  Uiso   1.00
N274   N     0.68020   0.17306   0.43574   0.00000  Uiso   1.00
N275   N     0.38429   0.52485   0.36274   0.00000  Uiso   1.00
N276   N     0.08594   0.17149   0.28942   0.00000  Uiso   1.00
C277   C     0.21300   0.48769   0.58286   0.00000  Uiso   1.00
C278   C     0.10765   0.54777   0.57588   0.00000  Uiso   1.00
C279   C     0.06875   0.59790   0.54245   0.00000  Uiso   1.00
C280   C     0.97073   0.64854   0.54173   0.00000  Uiso   1.00
C281   C     0.81578   0.74172   0.52607   0.00000  Uiso   1.00
C282   C     0.18843   0.36891   0.59617   0.00000  Uiso   1.00
C283   C     0.21748   0.26865   0.57981   0.00000  Uiso   1.00
C284   C     0.18748   0.16872   0.59618   0.00000  Uiso   1.00
C285   C     0.15803   0.98421   0.61205   0.00000  Uiso   1.00
C286   C     0.27102   0.54692   0.61641   0.00000  Uiso   1.00
C287   C     0.36953   0.59631   0.61706   0.00000  Uiso   1.00
C288   C     0.40907   0.64623   0.65047   0.00000  Uiso   1.00
C289   C     0.50785   0.73811   0.69775   0.00000  Uiso   1.00
C290   C     0.10808   0.48848   0.64104   0.00000  Uiso   1.00
C291   C     0.05066   0.54820   0.60748   0.00000  Uiso   1.00
C292   C     0.95267   0.59878   0.60681   0.00000  Uiso   1.00
C293   C     0.91364   0.64898   0.57339   0.00000  Uiso   1.00
C294   C     0.13145   0.36934   0.62777   0.00000  Uiso   1.00
C295   C     0.10140   0.26953   0.64418   0.00000  Uiso   1.00
C296   C     0.13039   0.16915   0.62784   0.00000  Uiso   1.00
C297   C     0.21404   0.54735   0.64801   0.00000  Uiso   1.00
C298   C     0.25344   0.59720   0.68143   0.00000  Uiso   1.00
C299   C     0.35198   0.64666   0.68213   0.00000  Uiso   1.00
H300   H     0.25737   0.48734   0.55826   0.00000  Uiso   1.00
H301   H     0.11287   0.59754   0.51799   0.00000  Uiso   1.00
H302   H     0.26159   0.26834   0.55535   0.00000  Uiso   1.00
H303   H     0.41360   0.59596   0.59260   0.00000  Uiso   1.00
H304   H     0.92753   0.71986   0.48728   0.00000  Uiso   1.00
H305   H     0.24114   0.02573   0.56607   0.00000  Uiso   1.00
H306   H     0.56169   0.71657   0.64460   0.00000  Uiso   1.00
H307   H     0.06372   0.48882   0.66565   0.00000  Uiso   1.00
H308   H     0.90859   0.59910   0.63127   0.00000  Uiso   1.00
H309   H     0.05731   0.26990   0.66863   0.00000  Uiso   1.00
H310   H     0.20932   0.59752   0.70587   0.00000  Uiso   1.00
H311   H     0.76172   0.72113   0.57922   0.00000  Uiso   1.00
H312   H     0.07533   0.02699   0.65801   0.00000  Uiso   1.00
H313   H     0.39588   0.71784   0.73654   0.00000  Uiso   1.00
O314   O     0.74605   0.79298   0.50870   0.00000  Uiso   1.00
O315   O     0.15752   0.88231   0.61206   0.00000  Uiso   1.00
O316   O     0.57807   0.78868   0.71510   0.00000  Uiso   1.00
N317   N     0.90980   0.70505   0.51364   0.00000  Uiso   1.00
N318   N     0.20299   0.05607   0.58729   0.00000  Uiso   1.00
N319   N     0.50270   0.70193   0.66072   0.00000  Uiso   1.00
N320   N     0.82058   0.70573   0.56311   0.00000  Uiso   1.00
N321   N     0.11377   0.05676   0.63677   0.00000  Uiso   1.00
N322   N     0.41348   0.70261   0.71020   0.00000  Uiso   1.00
C323   C     0.71298   0.95642   0.08339   0.00000  Uiso   1.00
C324   C     0.60740   0.01613   0.07657   0.00000  Uiso   1.00
C325   C     0.56801   0.06627   0.04320   0.00000  Uiso   1.00
C326   C     0.46985   0.11654   0.04264   0.00000  Uiso   1.00
C327   C     0.31450   0.20921   0.02722   0.00000  Uiso   1.00
C328   C     0.68893   0.83748   0.09669   0.00000  Uiso   1.00
C329   C     0.71811   0.73741   0.08023   0.00000  Uiso   1.00
C330   C     0.68861   0.63729   0.09661   0.00000  Uiso   1.00
C331   C     0.65991   0.45259   0.11244   0.00000  Uiso   1.00
C332   C     0.77115   0.01571   0.11689   0.00000  Uiso   1.00
C333   C     0.86947   0.06547   0.11743   0.00000  Uiso   1.00
C334   C     0.90920   0.11538   0.15082   0.00000  Uiso   1.00
C335   C     0.00815   0.20741   0.19802   0.00000  Uiso   1.00
C336   C     0.60871   0.95653   0.14173   0.00000  Uiso   1.00
C337   C     0.55076   0.01619   0.10826   0.00000  Uiso   1.00
C338   C     0.45264   0.06641   0.10775   0.00000  Uiso   1.00
C339   C     0.41312   0.11661   0.07438   0.00000  Uiso   1.00
C340   C     0.63230   0.83754   0.12837   0.00000  Uiso   1.00
C341   C     0.60275   0.73754   0.14478   0.00000  Uiso   1.00
C342   C     0.63187   0.63735   0.12835   0.00000  Uiso   1.00
C343   C     0.71452   0.01577   0.14858   0.00000  Uiso   1.00
C344   C     0.75410   0.06560   0.18198   0.00000  Uiso   1.00
C345   C     0.85246   0.11544   0.18257   0.00000  Uiso   1.00
H346   H     0.75707   0.95636   0.05872   0.00000  Uiso   1.00
H347   H     0.61185   0.06620   0.01868   0.00000  Uiso   1.00
H348   H     0.76195   0.73739   0.05571   0.00000  Uiso   1.00
H349   H     0.91327   0.06540   0.09290   0.00000  Uiso   1.00
H350   H     0.42586   0.18797   0.98826   0.00000  Uiso   1.00
H351   H     0.74237   0.49465   0.06635   0.00000  Uiso   1.00
H352   H     0.06148   0.18633   0.14478   0.00000  Uiso   1.00
H353   H     0.56462   0.95658   0.16640   0.00000  Uiso   1.00
H354   H     0.40884   0.06644   0.13227   0.00000  Uiso   1.00
H355   H     0.55893   0.73762   0.16930   0.00000  Uiso   1.00
H356   H     0.71026   0.06564   0.20649   0.00000  Uiso   1.00
H357   H     0.26108   0.18816   0.08046   0.00000  Uiso   1.00
H358   H     0.57760   0.49484   0.15855   0.00000  Uiso   1.00
H359   H     0.89670   0.18652   0.23697   0.00000  Uiso   1.00
O360   O     0.24445   0.26029   0.00996   0.00000  Uiso   1.00
O361   O     0.65972   0.35069   0.11241   0.00000  Uiso   1.00
O362   O     0.07837   0.25816   0.21531   0.00000  Uiso   1.00
N363   N     0.40847   0.17295   0.01465   0.00000  Uiso   1.00
N364   N     0.70438   0.52475   0.08765   0.00000  Uiso   1.00
N365   N     0.00272   0.17138   0.16098   0.00000  Uiso   1.00
N366   N     0.31980   0.17306   0.06426   0.00000  Uiso   1.00
N367   N     0.61571   0.52485   0.13726   0.00000  Uiso   1.00
N368   N     0.91406   0.17149   0.21058   0.00000  Uiso   1.00
