data_job_06380
_audit_creation_date              2018-12-19
_audit_creation_method            'Materials Studio'
_symmetry_space_group_name_H-M    'P1'
_symmetry_Int_Tables_number       1
_symmetry_cell_setting            triclinic
loop_
_symmetry_equiv_pos_as_xyz
  x,y,z
_cell_length_a                    17.0599
_cell_length_b                    16.3062
_cell_length_c                    16.0758
_cell_angle_alpha                 101.4350
_cell_angle_beta                  100.4980
_cell_angle_gamma                 100.9620
loop_
_atom_site_label
_atom_site_type_symbol
_atom_site_fract_x
_atom_site_fract_y
_atom_site_fract_z
_atom_site_U_iso_or_equiv
_atom_site_adp_type
_atom_site_occupancy
C1     C     0.05636   0.34888   0.90529   0.00000  Uiso   1.00
C2     C     0.98810   0.26694   0.87905   0.00000  Uiso   1.00
C3     C     0.91904   0.25366   0.91336   0.00000  Uiso   1.00
C4     C     0.86377   0.17424   0.88072   0.00000  Uiso   1.00
C5     C     0.75575   0.05668   0.84985   0.00000  Uiso   1.00
C6     C     0.13569   0.32149   0.93372   0.00000  Uiso   1.00
C7     C     0.19073   0.35408   0.01399   0.00000  Uiso   1.00
C8     C     0.25971   0.32059   0.02736   0.00000  Uiso   1.00
C9     C     0.38086   0.28777   0.08134   0.00000  Uiso   1.00
C10    C     0.06218   0.37775   0.82156   0.00000  Uiso   1.00
C11    C     0.05543   0.45766   0.80752   0.00000  Uiso   1.00
C12    C     0.06253   0.47154   0.72646   0.00000  Uiso   1.00
C13    C     0.06955   0.52607   0.60629   0.00000  Uiso   1.00
C14    C     0.08098   0.23146   0.78631   0.00000  Uiso   1.00
C15    C     0.00147   0.20316   0.81443   0.00000  Uiso   1.00
C16    C     0.94628   0.12373   0.78172   0.00000  Uiso   1.00
C17    C     0.87716   0.11034   0.81598   0.00000  Uiso   1.00
C18    C     0.14906   0.25771   0.86910   0.00000  Uiso   1.00
C19    C     0.21797   0.22416   0.88235   0.00000  Uiso   1.00
C20    C     0.27310   0.25669   0.96262   0.00000  Uiso   1.00
C21    C     0.07555   0.31397   0.75693   0.00000  Uiso   1.00
C22    C     0.08267   0.32773   0.67588   0.00000  Uiso   1.00
C23    C     0.07593   0.40764   0.66172   0.00000  Uiso   1.00
H24    H     0.04596   0.39854   0.95560   0.00000  Uiso   1.00
H25    H     0.90872   0.30303   0.96338   0.00000  Uiso   1.00
H26    H     0.18037   0.40345   0.06398   0.00000  Uiso   1.00
H27    H     0.04509   0.50700   0.85755   0.00000  Uiso   1.00
H28    H     0.76248   0.16900   0.94352   0.00000  Uiso   1.00
H29    H     0.33529   0.38076   0.15565   0.00000  Uiso   1.00
H30    H     0.05002   0.59912   0.72033   0.00000  Uiso   1.00
H31    H     0.09139   0.18180   0.73599   0.00000  Uiso   1.00
H32    H     0.95665   0.07439   0.73172   0.00000  Uiso   1.00
H33    H     0.22830   0.17481   0.83233   0.00000  Uiso   1.00
H34    H     0.09301   0.27836   0.62589   0.00000  Uiso   1.00
H35    H     0.80138   0.98342   0.75550   0.00000  Uiso   1.00
H36    H     0.37419   0.19519   0.96763   0.00000  Uiso   1.00
H37    H     0.08892   0.41354   0.53231   0.00000  Uiso   1.00
O38    O     0.69249   0.00946   0.85068   0.00000  Uiso   1.00
O39    O     0.44399   0.28729   0.12897   0.00000  Uiso   1.00
O40    O     0.06972   0.57377   0.55785   0.00000  Uiso   1.00
N41    N     0.79012   0.14007   0.89985   0.00000  Uiso   1.00
N42    N     0.32565   0.33804   0.09818   0.00000  Uiso   1.00
N43    N     0.05897   0.54220   0.69120   0.00000  Uiso   1.00
N44    N     0.81105   0.04021   0.79867   0.00000  Uiso   1.00
N45    N     0.34659   0.23819   0.99700   0.00000  Uiso   1.00
N46    N     0.07990   0.44234   0.59003   0.00000  Uiso   1.00
C47    C     0.89749   0.05173   0.34641   0.00000  Uiso   1.00
C48    C     0.87111   0.98030   0.26279   0.00000  Uiso   1.00
C49    C     0.90147   0.90693   0.24740   0.00000  Uiso   1.00
C50    C     0.86943   0.84930   0.16671   0.00000  Uiso   1.00
C51    C     0.83766   0.73609   0.04644   0.00000  Uiso   1.00
C52    C     0.92593   0.13484   0.31920   0.00000  Uiso   1.00
C53    C     0.00237   0.19140   0.35125   0.00000  Uiso   1.00
C54    C     0.01646   0.26387   0.31805   0.00000  Uiso   1.00
C55    C     0.06977   0.39060   0.28540   0.00000  Uiso   1.00
C56    C     0.81944   0.05933   0.37778   0.00000  Uiso   1.00
C57    C     0.80635   0.05243   0.45909   0.00000  Uiso   1.00
C58    C     0.73079   0.06135   0.47520   0.00000  Uiso   1.00
C59    C     0.61877   0.07085   0.53350   0.00000  Uiso   1.00
C60    C     0.78659   0.07986   0.23047   0.00000  Uiso   1.00
C61    C     0.81088   0.99558   0.19982   0.00000  Uiso   1.00
C62    C     0.77877   0.93805   0.11913   0.00000  Uiso   1.00
C63    C     0.80908   0.86460   0.10362   0.00000  Uiso   1.00
C64    C     0.86569   0.15012   0.25623   0.00000  Uiso   1.00
C65    C     0.87967   0.22252   0.22298   0.00000  Uiso   1.00
C66    C     0.95612   0.27917   0.25496   0.00000  Uiso   1.00
C67    C     0.75920   0.07461   0.31480   0.00000  Uiso   1.00
C68    C     0.68365   0.08355   0.33081   0.00000  Uiso   1.00
C69    C     0.67045   0.07665   0.41212   0.00000  Uiso   1.00
H70    H     0.94439   0.03984   0.39544   0.00000  Uiso   1.00
H71    H     0.94809   0.89513   0.29615   0.00000  Uiso   1.00
H72    H     0.04897   0.17956   0.39999   0.00000  Uiso   1.00
H73    H     0.85298   0.04061   0.50780   0.00000  Uiso   1.00
H74    H     0.92566   0.74145   0.15829   0.00000  Uiso   1.00
H75    H     0.13835   0.34120   0.37726   0.00000  Uiso   1.00
H76    H     0.72507   0.04820   0.60461   0.00000  Uiso   1.00
H77    H     0.73969   0.09176   0.18144   0.00000  Uiso   1.00
H78    H     0.73216   0.94989   0.07041   0.00000  Uiso   1.00
H79    H     0.83304   0.23432   0.17425   0.00000  Uiso   1.00
H80    H     0.63705   0.09537   0.28206   0.00000  Uiso   1.00
H81    H     0.75040   0.78589   0.97507   0.00000  Uiso   1.00
H82    H     0.96310   0.38565   0.19404   0.00000  Uiso   1.00
H83    H     0.54982   0.09264   0.42138   0.00000  Uiso   1.00
O84    O     0.83679   0.66943   0.99749   0.00000  Uiso   1.00
O85    O     0.11583   0.45628   0.28479   0.00000  Uiso   1.00
O86    O     0.57362   0.07186   0.58305   0.00000  Uiso   1.00
N87    N     0.88543   0.77137   0.13041   0.00000  Uiso   1.00
N88    N     0.08429   0.33210   0.33513   0.00000  Uiso   1.00
N89    N     0.69792   0.05818   0.54768   0.00000  Uiso   1.00
N90    N     0.79113   0.79528   0.03182   0.00000  Uiso   1.00
N91    N     0.98999   0.35601   0.23654   0.00000  Uiso   1.00
N92    N     0.60362   0.08210   0.44909   0.00000  Uiso   1.00
C93    C     0.34506   0.90172   0.05127   0.00000  Uiso   1.00
C94    C     0.26609   0.87545   0.98036   0.00000  Uiso   1.00
C95    C     0.25226   0.90776   0.90676   0.00000  Uiso   1.00
C96    C     0.17591   0.87546   0.84968   0.00000  Uiso   1.00
C97    C     0.06245   0.84418   0.73715   0.00000  Uiso   1.00
C98    C     0.32052   0.93212   0.13670   0.00000  Uiso   1.00
C99    C     0.35247   0.01208   0.19455   0.00000  Uiso   1.00
C100   C     0.32196   0.02748   0.26909   0.00000  Uiso   1.00
C101   C     0.29305   0.08418   0.39932   0.00000  Uiso   1.00
C102   C     0.37250   0.81890   0.05700   0.00000  Uiso   1.00
C103   C     0.44816   0.80367   0.04786   0.00000  Uiso   1.00
C104   C     0.46142   0.72375   0.05532   0.00000  Uiso   1.00
C105   C     0.51321   0.60466   0.06179   0.00000  Uiso   1.00
C106   C     0.23407   0.78690   0.08079   0.00000  Uiso   1.00
C107   C     0.20580   0.81308   0.99640   0.00000  Uiso   1.00
C108   C     0.12946   0.78072   0.93942   0.00000  Uiso   1.00
C109   C     0.11552   0.81297   0.86574   0.00000  Uiso   1.00
C110   C     0.26024   0.86976   0.15273   0.00000  Uiso   1.00
C111   C     0.22967   0.88504   0.22721   0.00000  Uiso   1.00
C112   C     0.26156   0.96500   0.28516   0.00000  Uiso   1.00
C113   C     0.31221   0.75654   0.07303   0.00000  Uiso   1.00
C114   C     0.32536   0.67663   0.08051   0.00000  Uiso   1.00
C115   C     0.40102   0.66127   0.07138   0.00000  Uiso   1.00
H116   H     0.39199   0.95028   0.03879   0.00000  Uiso   1.00
H117   H     0.29893   0.95603   0.89437   0.00000  Uiso   1.00
H118   H     0.39913   0.06033   0.18213   0.00000  Uiso   1.00
H119   H     0.49480   0.85195   0.03545   0.00000  Uiso   1.00
H120   H     0.16915   0.93492   0.74134   0.00000  Uiso   1.00
H121   H     0.38045   0.15484   0.34810   0.00000  Uiso   1.00
H122   H     0.58220   0.71543   0.03881   0.00000  Uiso   1.00
H123   H     0.18713   0.73834   0.09328   0.00000  Uiso   1.00
H124   H     0.08282   0.73246   0.95184   0.00000  Uiso   1.00
H125   H     0.18302   0.83676   0.23960   0.00000  Uiso   1.00
H126   H     0.27869   0.62838   0.09292   0.00000  Uiso   1.00
H127   H     0.99374   0.75347   0.78799   0.00000  Uiso   1.00
H128   H     0.20505   0.97338   0.39476   0.00000  Uiso   1.00
H129   H     0.40679   0.53397   0.08546   0.00000  Uiso   1.00
O130   O     0.01651   0.84417   0.67066   0.00000  Uiso   1.00
O131   O     0.29375   0.13268   0.46671   0.00000  Uiso   1.00
O132   O     0.55843   0.55619   0.06092   0.00000  Uiso   1.00
N133   N     0.14219   0.89301   0.77172   0.00000  Uiso   1.00
N134   N     0.33973   0.09862   0.33900   0.00000  Uiso   1.00
N135   N     0.52836   0.68782   0.04986   0.00000  Uiso   1.00
N136   N     0.04780   0.79537   0.79682   0.00000  Uiso   1.00
N137   N     0.24535   0.00099   0.36410   0.00000  Uiso   1.00
N138   N     0.43398   0.59018   0.07496   0.00000  Uiso   1.00
C139   C     0.55639   0.40376   0.84961   0.00000  Uiso   1.00
C140   C     0.48821   0.37727   0.76690   0.00000  Uiso   1.00
C141   C     0.41922   0.41069   0.75365   0.00000  Uiso   1.00
C142   C     0.36401   0.37796   0.67345   0.00000  Uiso   1.00
C143   C     0.25611   0.34658   0.55482   0.00000  Uiso   1.00
C144   C     0.63580   0.43208   0.82130   0.00000  Uiso   1.00
C145   C     0.69091   0.51157   0.85381   0.00000  Uiso   1.00
C146   C     0.75995   0.52497   0.81943   0.00000  Uiso   1.00
C147   C     0.88123   0.57866   0.78531   0.00000  Uiso   1.00
C148   C     0.56205   0.32138   0.87917   0.00000  Uiso   1.00
C149   C     0.55518   0.30780   0.96035   0.00000  Uiso   1.00
C150   C     0.56215   0.22801   0.97468   0.00000  Uiso   1.00
C151   C     0.56892   0.10982   0.03042   0.00000  Uiso   1.00
C152   C     0.58101   0.28622   0.73075   0.00000  Uiso   1.00
C153   C     0.50158   0.31343   0.70234   0.00000  Uiso   1.00
C154   C     0.44646   0.28064   0.62214   0.00000  Uiso   1.00
C155   C     0.37740   0.31400   0.60878   0.00000  Uiso   1.00
C156   C     0.64917   0.36824   0.75675   0.00000  Uiso   1.00
C157   C     0.71815   0.38152   0.72231   0.00000  Uiso   1.00
C158   C     0.77334   0.46102   0.75475   0.00000  Uiso   1.00
C159   C     0.57542   0.25753   0.81461   0.00000  Uiso   1.00
C160   C     0.58241   0.17775   0.82883   0.00000  Uiso   1.00
C161   C     0.57554   0.16405   0.91001   0.00000  Uiso   1.00
H162   H     0.54599   0.45347   0.89987   0.00000  Uiso   1.00
H163   H     0.40890   0.46010   0.80363   0.00000  Uiso   1.00
H164   H     0.68055   0.56096   0.90378   0.00000  Uiso   1.00
H165   H     0.54483   0.35722   0.01029   0.00000  Uiso   1.00
H166   H     0.26282   0.43932   0.66843   0.00000  Uiso   1.00
H167   H     0.83562   0.65198   0.87964   0.00000  Uiso   1.00
H168   H     0.54944   0.22236   0.10424   0.00000  Uiso   1.00
H169   H     0.59142   0.23651   0.68048   0.00000  Uiso   1.00
H170   H     0.45682   0.23123   0.57219   0.00000  Uiso   1.00
H171   H     0.72847   0.33210   0.67235   0.00000  Uiso   1.00
H172   H     0.59276   0.12836   0.77886   0.00000  Uiso   1.00
H173   H     0.30172   0.25357   0.48059   0.00000  Uiso   1.00
H174   H     0.87453   0.46623   0.69180   0.00000  Uiso   1.00
H175   H     0.58834   0.03661   0.91639   0.00000  Uiso   1.00
O176   O     0.19292   0.34691   0.50722   0.00000  Uiso   1.00
O177   O     0.94442   0.62591   0.78433   0.00000  Uiso   1.00
O178   O     0.56895   0.06226   0.07899   0.00000  Uiso   1.00
N179   N     0.29044   0.39632   0.63909   0.00000  Uiso   1.00
N180   N     0.82597   0.59515   0.83655   0.00000  Uiso   1.00
N181   N     0.55844   0.19349   0.04653   0.00000  Uiso   1.00
N182   N     0.31137   0.29637   0.53801   0.00000  Uiso   1.00
N183   N     0.84690   0.49520   0.73547   0.00000  Uiso   1.00
N184   N     0.57937   0.09354   0.94546   0.00000  Uiso   1.00
C185   C     0.39765   0.84587   0.55027   0.00000  Uiso   1.00
C186   C     0.37125   0.76309   0.47822   0.00000  Uiso   1.00
C187   C     0.40169   0.74781   0.40366   0.00000  Uiso   1.00
C188   C     0.36962   0.66792   0.34564   0.00000  Uiso   1.00
C189   C     0.33784   0.54884   0.23134   0.00000  Uiso   1.00
C190   C     0.42593   0.81950   0.63456   0.00000  Uiso   1.00
C191   C     0.50234   0.85167   0.69145   0.00000  Uiso   1.00
C192   C     0.51628   0.81928   0.76503   0.00000  Uiso   1.00
C193   C     0.56938   0.78783   0.89349   0.00000  Uiso   1.00
C194   C     0.31963   0.87642   0.55827   0.00000  Uiso   1.00
C195   C     0.30666   0.95645   0.55104   0.00000  Uiso   1.00
C196   C     0.23112   0.97199   0.56042   0.00000  Uiso   1.00
C197   C     0.11916   0.02891   0.57042   0.00000  Uiso   1.00
C198   C     0.28655   0.73117   0.57979   0.00000  Uiso   1.00
C199   C     0.31091   0.70078   0.49426   0.00000  Uiso   1.00
C200   C     0.27878   0.62090   0.43633   0.00000  Uiso   1.00
C201   C     0.30916   0.60551   0.36170   0.00000  Uiso   1.00
C202   C     0.36559   0.75720   0.65059   0.00000  Uiso   1.00
C203   C     0.37942   0.72476   0.72411   0.00000  Uiso   1.00
C204   C     0.45583   0.75686   0.78110   0.00000  Uiso   1.00
C205   C     0.25928   0.81412   0.57430   0.00000  Uiso   1.00
C206   C     0.18374   0.82954   0.58370   0.00000  Uiso   1.00
C207   C     0.17066   0.90958   0.57649   0.00000  Uiso   1.00
H208   H     0.44463   0.89438   0.53779   0.00000  Uiso   1.00
H209   H     0.44840   0.79604   0.39128   0.00000  Uiso   1.00
H210   H     0.54902   0.89989   0.67903   0.00000  Uiso   1.00
H211   H     0.35338   0.00465   0.53863   0.00000  Uiso   1.00
H212   H     0.42599   0.65953   0.23594   0.00000  Uiso   1.00
H213   H     0.63815   0.87852   0.84268   0.00000  Uiso   1.00
H214   H     0.22559   0.09943   0.54664   0.00000  Uiso   1.00
H215   H     0.23956   0.68266   0.59228   0.00000  Uiso   1.00
H216   H     0.23208   0.57270   0.44875   0.00000  Uiso   1.00
H217   H     0.33271   0.67655   0.73650   0.00000  Uiso   1.00
H218   H     0.13706   0.78131   0.59611   0.00000  Uiso   1.00
H219   H     0.25042   0.47825   0.28259   0.00000  Uiso   1.00
H220   H     0.46258   0.69725   0.88933   0.00000  Uiso   1.00
H221   H     0.05002   0.91816   0.59329   0.00000  Uiso   1.00
O222   O     0.33700   0.50036   0.16388   0.00000  Uiso   1.00
O223   O     0.61534   0.78769   0.95991   0.00000  Uiso   1.00
O224   O     0.07407   0.07751   0.57150   0.00000  Uiso   1.00
N225   N     0.38568   0.63196   0.26660   0.00000  Uiso   1.00
N226   N     0.58404   0.83669   0.83386   0.00000  Uiso   1.00
N227   N     0.19835   0.04324   0.55711   0.00000  Uiso   1.00
N228   N     0.29121   0.53442   0.29170   0.00000  Uiso   1.00
N229   N     0.48957   0.73915   0.85897   0.00000  Uiso   1.00
N230   N     0.10387   0.94570   0.58222   0.00000  Uiso   1.00
C231   C     0.84487   0.55270   0.40309   0.00000  Uiso   1.00
C232   C     0.76584   0.48233   0.37709   0.00000  Uiso   1.00
C233   C     0.75186   0.40985   0.41021   0.00000  Uiso   1.00
C234   C     0.67548   0.35311   0.37802   0.00000  Uiso   1.00
C235   C     0.56190   0.24153   0.34727   0.00000  Uiso   1.00
C236   C     0.82041   0.63687   0.43376   0.00000  Uiso   1.00
C237   C     0.85233   0.69432   0.51453   0.00000  Uiso   1.00
C238   C     0.82189   0.76768   0.53005   0.00000  Uiso   1.00
C239   C     0.79308   0.89607   0.58726   0.00000  Uiso   1.00
C240   C     0.87243   0.55818   0.31889   0.00000  Uiso   1.00
C241   C     0.94811   0.54950   0.30308   0.00000  Uiso   1.00
C242   C     0.96148   0.55664   0.22188   0.00000  Uiso   1.00
C243   C     0.01345   0.56285   0.10074   0.00000  Uiso   1.00
C244   C     0.73408   0.58083   0.28703   0.00000  Uiso   1.00
C245   C     0.70566   0.49761   0.31405   0.00000  Uiso   1.00
C246   C     0.62928   0.44096   0.28180   0.00000  Uiso   1.00
C247   C     0.61520   0.36841   0.31487   0.00000  Uiso   1.00
C248   C     0.76023   0.65215   0.37073   0.00000  Uiso   1.00
C249   C     0.72975   0.72544   0.38613   0.00000  Uiso   1.00
C250   C     0.76160   0.78299   0.46690   0.00000  Uiso   1.00
C251   C     0.81226   0.57346   0.25585   0.00000  Uiso   1.00
C252   C     0.82552   0.58061   0.17467   0.00000  Uiso   1.00
C253   C     0.90120   0.57194   0.15873   0.00000  Uiso   1.00
H254   H     0.89172   0.54081   0.45217   0.00000  Uiso   1.00
H255   H     0.79844   0.39805   0.45900   0.00000  Uiso   1.00
H256   H     0.89890   0.68249   0.56330   0.00000  Uiso   1.00
H257   H     0.99466   0.53768   0.35187   0.00000  Uiso   1.00
H258   H     0.66848   0.24652   0.43879   0.00000  Uiso   1.00
H259   H     0.88032   0.84629   0.65870   0.00000  Uiso   1.00
H260   H     0.08225   0.54095   0.21288   0.00000  Uiso   1.00
H261   H     0.68723   0.59272   0.23795   0.00000  Uiso   1.00
H262   H     0.58272   0.45280   0.23302   0.00000  Uiso   1.00
H263   H     0.68318   0.73724   0.33733   0.00000  Uiso   1.00
H264   H     0.77894   0.59244   0.12590   0.00000  Uiso   1.00
H265   H     0.49339   0.29096   0.25539   0.00000  Uiso   1.00
H266   H     0.70523   0.89074   0.47530   0.00000  Uiso   1.00
H267   H     0.90717   0.58539   0.02947   0.00000  Uiso   1.00
O268   O     0.51587   0.17578   0.34773   0.00000  Uiso   1.00
O269   O     0.79381   0.96266   0.63624   0.00000  Uiso   1.00
O270   O     0.05874   0.56205   0.05133   0.00000  Uiso   1.00
N271   N     0.64162   0.27618   0.39629   0.00000  Uiso   1.00
N272   N     0.83967   0.83692   0.60190   0.00000  Uiso   1.00
N273   N     0.02847   0.55147   0.18510   0.00000  Uiso   1.00
N274   N     0.54741   0.30009   0.29760   0.00000  Uiso   1.00
N275   N     0.74545   0.86083   0.50321   0.00000  Uiso   1.00
N276   N     0.93426   0.57538   0.08641   0.00000  Uiso   1.00
