data_job_07023
_audit_creation_date              2018-12-19
_audit_creation_method            'Materials Studio'
_symmetry_space_group_name_H-M    'P1'
_symmetry_Int_Tables_number       1
_symmetry_cell_setting            triclinic
loop_
_symmetry_equiv_pos_as_xyz
  x,y,z
_cell_length_a                    18.3592
_cell_length_b                    21.8758
_cell_length_c                    23.6944
_cell_angle_alpha                 68.9493
_cell_angle_beta                  89.8204
_cell_angle_gamma                 74.9217
loop_
_atom_site_label
_atom_site_type_symbol
_atom_site_fract_x
_atom_site_fract_y
_atom_site_fract_z
_atom_site_U_iso_or_equiv
_atom_site_adp_type
_atom_site_occupancy
C1     C     0.71684   0.30455   0.63067   0.00000  Uiso   1.00
C2     C     0.76806   0.23193   0.64914   0.00000  Uiso   1.00
C3     C     0.74501   0.17537   0.65203   0.00000  Uiso   1.00
C4     C     0.80051   0.11338   0.66996   0.00000  Uiso   1.00
C5     C     0.86849   0.00140   0.69647   0.00000  Uiso   1.00
C6     C     0.72716   0.32689   0.68342   0.00000  Uiso   1.00
C7     C     0.66973   0.35018   0.71512   0.00000  Uiso   1.00
C8     C     0.69081   0.36814   0.76191   0.00000  Uiso   1.00
C9     C     0.69530   0.40363   0.84160   0.00000  Uiso   1.00
C10    C     0.75095   0.34832   0.57776   0.00000  Uiso   1.00
C11    C     0.71352   0.38965   0.52062   0.00000  Uiso   1.00
C12    C     0.75463   0.42566   0.47845   0.00000  Uiso   1.00
C13    C     0.79605   0.49442   0.39409   0.00000  Uiso   1.00
C14    C     0.85641   0.29504   0.65739   0.00000  Uiso   1.00
C15    C     0.84386   0.22676   0.66366   0.00000  Uiso   1.00
C16    C     0.89942   0.16484   0.68159   0.00000  Uiso   1.00
C17    C     0.87645   0.10821   0.68450   0.00000  Uiso   1.00
C18    C     0.80297   0.32172   0.69794   0.00000  Uiso   1.00
C19    C     0.82414   0.33965   0.74468   0.00000  Uiso   1.00
C20    C     0.76675   0.36296   0.77645   0.00000  Uiso   1.00
C21    C     0.82676   0.34315   0.59227   0.00000  Uiso   1.00
C22    C     0.86793   0.37911   0.55018   0.00000  Uiso   1.00
C23    C     0.83057   0.42048   0.49299   0.00000  Uiso   1.00
H24    H     0.65783   0.30858   0.61937   0.00000  Uiso   1.00
H25    H     0.68633   0.17939   0.64080   0.00000  Uiso   1.00
H26    H     0.61107   0.35418   0.70388   0.00000  Uiso   1.00
H27    H     0.65485   0.39363   0.50940   0.00000  Uiso   1.00
H28    H     0.75137   0.03388   0.67097   0.00000  Uiso   1.00
H29    H     0.59266   0.40245   0.80396   0.00000  Uiso   1.00
H30    H     0.68499   0.48565   0.39388   0.00000  Uiso   1.00
H31    H     0.91543   0.29101   0.66869   0.00000  Uiso   1.00
H32    H     0.95808   0.16086   0.69282   0.00000  Uiso   1.00
H33    H     0.88281   0.33565   0.75590   0.00000  Uiso   1.00
H34    H     0.92660   0.37510   0.56143   0.00000  Uiso   1.00
H35    H     0.97192   0.01884   0.71320   0.00000  Uiso   1.00
H36    H     0.81322   0.38742   0.84619   0.00000  Uiso   1.00
H37    H     0.90555   0.47061   0.43611   0.00000  Uiso   1.00
O38    O     0.88505   0.94106   0.70709   0.00000  Uiso   1.00
O39    O     0.67683   0.42462   0.88156   0.00000  Uiso   1.00
O40    O     0.79796   0.53377   0.34354   0.00000  Uiso   1.00
N41    N     0.79742   0.04821   0.67759   0.00000  Uiso   1.00
N42    N     0.64905   0.39279   0.80193   0.00000  Uiso   1.00
N43    N     0.73536   0.47059   0.41855   0.00000  Uiso   1.00
N44    N     0.91610   0.04011   0.70031   0.00000  Uiso   1.00
N45    N     0.76773   0.38469   0.82465   0.00000  Uiso   1.00
N46    N     0.85404   0.46249   0.44127   0.00000  Uiso   1.00
C47    C     0.97892   0.85148   0.23513   0.00000  Uiso   1.00
C48    C     0.97107   0.86703   0.16698   0.00000  Uiso   1.00
C49    C     0.02645   0.88033   0.12801   0.00000  Uiso   1.00
C50    C     0.00821   0.89339   0.06720   0.00000  Uiso   1.00
C51    C     0.00681   0.91761   0.96457   0.00000  Uiso   1.00
C52    C     0.91387   0.90415   0.24630   0.00000  Uiso   1.00
C53    C     0.92117   0.94867   0.27404   0.00000  Uiso   1.00
C54    C     0.85478   0.99297   0.28001   0.00000  Uiso   1.00
C55    C     0.76458   0.07480   0.30057   0.00000  Uiso   1.00
C56    C     0.96214   0.78294   0.26558   0.00000  Uiso   1.00
C57    C     0.01001   0.72554   0.30954   0.00000  Uiso   1.00
C58    C     0.98426   0.66779   0.33175   0.00000  Uiso   1.00
C59    C     0.96901   0.56141   0.38224   0.00000  Uiso   1.00
C60    C     0.84805   0.85101   0.19642   0.00000  Uiso   1.00
C61    C     0.89998   0.86678   0.14596   0.00000  Uiso   1.00
C62    C     0.88165   0.87982   0.08518   0.00000  Uiso   1.00
C63    C     0.93700   0.89314   0.04614   0.00000  Uiso   1.00
C64    C     0.84279   0.90390   0.22528   0.00000  Uiso   1.00
C65    C     0.77638   0.94815   0.23121   0.00000  Uiso   1.00
C66    C     0.78357   0.99272   0.25895   0.00000  Uiso   1.00
C67    C     0.89106   0.78269   0.24455   0.00000  Uiso   1.00
C68    C     0.86522   0.72502   0.26670   0.00000  Uiso   1.00
C69    C     0.91304   0.66754   0.31068   0.00000  Uiso   1.00
H70    H     0.03426   0.85168   0.25150   0.00000  Uiso   1.00
H71    H     0.08145   0.88053   0.14430   0.00000  Uiso   1.00
H72    H     0.97618   0.94885   0.29031   0.00000  Uiso   1.00
H73    H     0.06502   0.72575   0.32580   0.00000  Uiso   1.00
H74    H     0.10240   0.91243   0.01617   0.00000  Uiso   1.00
H75    H     0.88045   0.05646   0.32406   0.00000  Uiso   1.00
H76    H     0.06777   0.58603   0.39890   0.00000  Uiso   1.00
H77    H     0.79271   0.85082   0.18005   0.00000  Uiso   1.00
H78    H     0.82664   0.87962   0.06893   0.00000  Uiso   1.00
H79    H     0.72138   0.94794   0.21494   0.00000  Uiso   1.00
H80    H     0.81021   0.72484   0.25042   0.00000  Uiso   1.00
H81    H     0.89559   0.91169   0.95500   0.00000  Uiso   1.00
H82    H     0.67364   0.05573   0.26289   0.00000  Uiso   1.00
H83    H     0.86096   0.58529   0.33772   0.00000  Uiso   1.00
O84    O     0.02567   0.93105   0.91377   0.00000  Uiso   1.00
O85    O     0.73447   0.12000   0.31772   0.00000  Uiso   1.00
O86    O     0.98024   0.50280   0.41589   0.00000  Uiso   1.00
N87    N     0.04908   0.90829   0.01703   0.00000  Uiso   1.00
N88    N     0.84157   0.04296   0.30488   0.00000  Uiso   1.00
N89    N     0.01669   0.60315   0.37485   0.00000  Uiso   1.00
N90    N     0.93779   0.90789   0.98411   0.00000  Uiso   1.00
N91    N     0.73028   0.04256   0.27196   0.00000  Uiso   1.00
N92    N     0.90540   0.60275   0.34193   0.00000  Uiso   1.00
C93    C     0.49391   0.83531   0.12484   0.00000  Uiso   1.00
C94    C     0.43638   0.79557   0.12651   0.00000  Uiso   1.00
C95    C     0.38734   0.80519   0.07770   0.00000  Uiso   1.00
C96    C     0.33902   0.76368   0.08852   0.00000  Uiso   1.00
C97    C     0.24956   0.70950   0.08236   0.00000  Uiso   1.00
C98    C     0.47561   0.86584   0.17355   0.00000  Uiso   1.00
C99    C     0.45957   0.93453   0.16428   0.00000  Uiso   1.00
C100   C     0.44429   0.95216   0.21471   0.00000  Uiso   1.00
C101   C     0.41578   0.00707   0.28159   0.00000  Uiso   1.00
C102   C     0.57069   0.78229   0.14711   0.00000  Uiso   1.00
C103   C     0.63459   0.78074   0.11563   0.00000  Uiso   1.00
C104   C     0.69937   0.72804   0.14381   0.00000  Uiso   1.00
C105   C     0.81848   0.65323   0.16965   0.00000  Uiso   1.00
C106   C     0.49532   0.74449   0.23086   0.00000  Uiso   1.00
C107   C     0.43714   0.74624   0.18410   0.00000  Uiso   1.00
C108   C     0.38889   0.70470   0.19500   0.00000  Uiso   1.00
C109   C     0.33979   0.71425   0.14621   0.00000  Uiso   1.00
C110   C     0.47638   0.81651   0.23114   0.00000  Uiso   1.00
C111   C     0.46112   0.83404   0.28159   0.00000  Uiso   1.00
C112   C     0.44505   0.90274   0.27240   0.00000  Uiso   1.00
C113   C     0.57145   0.73296   0.20470   0.00000  Uiso   1.00
C114   C     0.63615   0.68025   0.23294   0.00000  Uiso   1.00
C115   C     0.70014   0.67862   0.20151   0.00000  Uiso   1.00
H116   H     0.49331   0.87372   0.08000   0.00000  Uiso   1.00
H117   H     0.38676   0.84338   0.03313   0.00000  Uiso   1.00
H118   H     0.45899   0.97269   0.11971   0.00000  Uiso   1.00
H119   H     0.63398   0.81893   0.07107   0.00000  Uiso   1.00
H120   H     0.26894   0.78799   0.00658   0.00000  Uiso   1.00
H121   H     0.42126   0.06066   0.18913   0.00000  Uiso   1.00
H122   H     0.79028   0.73642   0.08656   0.00000  Uiso   1.00
H123   H     0.49591   0.70608   0.27570   0.00000  Uiso   1.00
H124   H     0.38950   0.66653   0.23957   0.00000  Uiso   1.00
H125   H     0.46172   0.79585   0.32615   0.00000  Uiso   1.00
H126   H     0.63672   0.64209   0.27751   0.00000  Uiso   1.00
H127   H     0.27116   0.64446   0.17413   0.00000  Uiso   1.00
H128   H     0.42349   0.91713   0.35669   0.00000  Uiso   1.00
H129   H     0.79250   0.59289   0.25411   0.00000  Uiso   1.00
O130   O     0.19999   0.69325   0.06306   0.00000  Uiso   1.00
O131   O     0.39984   0.05098   0.30257   0.00000  Uiso   1.00
O132   O     0.88397   0.62558   0.16799   0.00000  Uiso   1.00
N133   N     0.28408   0.75963   0.05097   0.00000  Uiso   1.00
N134   N     0.42648   0.01456   0.22164   0.00000  Uiso   1.00
N135   N     0.77148   0.71143   0.12575   0.00000  Uiso   1.00
N136   N     0.28528   0.68240   0.14113   0.00000  Uiso   1.00
N137   N     0.42767   0.93733   0.31180   0.00000  Uiso   1.00
N138   N     0.77268   0.63420   0.21591   0.00000  Uiso   1.00
C139   C     0.75925   0.59408   0.81662   0.00000  Uiso   1.00
C140   C     0.75115   0.58490   0.75633   0.00000  Uiso   1.00
C141   C     0.69537   0.56148   0.73833   0.00000  Uiso   1.00
C142   C     0.69772   0.55671   0.68145   0.00000  Uiso   1.00
C143   C     0.67659   0.53976   0.59354   0.00000  Uiso   1.00
C144   C     0.75835   0.66835   0.80039   0.00000  Uiso   1.00
C145   C     0.70862   0.71509   0.81945   0.00000  Uiso   1.00
C146   C     0.71704   0.78057   0.79966   0.00000  Uiso   1.00
C147   C     0.70712   0.89316   0.78019   0.00000  Uiso   1.00
C148   C     0.83909   0.55172   0.84583   0.00000  Uiso   1.00
C149   C     0.85725   0.50040   0.90309   0.00000  Uiso   1.00
C150   C     0.93366   0.46769   0.92156   0.00000  Uiso   1.00
C151   C     0.04909   0.39919   0.97263   0.00000  Uiso   1.00
C152   C     0.86263   0.62725   0.74761   0.00000  Uiso   1.00
C153   C     0.80731   0.60292   0.71885   0.00000  Uiso   1.00
C154   C     0.80975   0.59818   0.66198   0.00000  Uiso   1.00
C155   C     0.75398   0.57476   0.64390   0.00000  Uiso   1.00
C156   C     0.81450   0.68637   0.76291   0.00000  Uiso   1.00
C157   C     0.82300   0.75179   0.74310   0.00000  Uiso   1.00
C158   C     0.77330   0.79862   0.76211   0.00000  Uiso   1.00
C159   C     0.89524   0.56973   0.80834   0.00000  Uiso   1.00
C160   C     0.97163   0.53710   0.82673   0.00000  Uiso   1.00
C161   C     0.98991   0.48574   0.88401   0.00000  Uiso   1.00
H162   H     0.71553   0.58005   0.84580   0.00000  Uiso   1.00
H163   H     0.65191   0.54755   0.76735   0.00000  Uiso   1.00
H164   H     0.66517   0.70113   0.84846   0.00000  Uiso   1.00
H165   H     0.81378   0.48648   0.93208   0.00000  Uiso   1.00
H166   H     0.60613   0.51948   0.66384   0.00000  Uiso   1.00
H167   H     0.63411   0.84331   0.83487   0.00000  Uiso   1.00
H168   H     0.94748   0.39067   0.01121   0.00000  Uiso   1.00
H169   H     0.90635   0.64127   0.71842   0.00000  Uiso   1.00
H170   H     0.85321   0.61213   0.63298   0.00000  Uiso   1.00
H171   H     0.86647   0.76571   0.71409   0.00000  Uiso   1.00
H172   H     0.01508   0.55105   0.79772   0.00000  Uiso   1.00
H173   H     0.76951   0.57190   0.55478   0.00000  Uiso   1.00
H174   H     0.79749   0.89573   0.72582   0.00000  Uiso   1.00
H175   H     0.11086   0.44308   0.90215   0.00000  Uiso   1.00
O176   O     0.64941   0.52544   0.55540   0.00000  Uiso   1.00
O177   O     0.68612   0.95028   0.77980   0.00000  Uiso   1.00
O178   O     0.09725   0.35642   0.01115   0.00000  Uiso   1.00
N179   N     0.65189   0.53581   0.64990   0.00000  Uiso   1.00
N180   N     0.67803   0.83857   0.80980   0.00000  Uiso   1.00
N181   N     0.97101   0.41540   0.97467   0.00000  Uiso   1.00
N182   N     0.73980   0.56401   0.59122   0.00000  Uiso   1.00
N183   N     0.76595   0.86678   0.75112   0.00000  Uiso   1.00
N184   N     0.05892   0.44360   0.91599   0.00000  Uiso   1.00
C185   C     0.21150   0.90433   0.71701   0.00000  Uiso   1.00
C186   C     0.28583   0.85369   0.71583   0.00000  Uiso   1.00
C187   C     0.30706   0.83372   0.66744   0.00000  Uiso   1.00
C188   C     0.37737   0.78686   0.67533   0.00000  Uiso   1.00
C189   C     0.48560   0.71220   0.66522   0.00000  Uiso   1.00
C190   C     0.23342   0.95982   0.73197   0.00000  Uiso   1.00
C191   C     0.21057   0.02909   0.69715   0.00000  Uiso   1.00
C192   C     0.23676   0.07157   0.71863   0.00000  Uiso   1.00
C193   C     0.26358   0.16168   0.73360   0.00000  Uiso   1.00
C194   C     0.17497   0.86678   0.77180   0.00000  Uiso   1.00
C195   C     0.10296   0.85783   0.77047   0.00000  Uiso   1.00
C196   C     0.07993   0.82199   0.82549   0.00000  Uiso   1.00
C197   C     0.01599   0.76764   0.90230   0.00000  Uiso   1.00
C198   C     0.29862   0.85661   0.81708   0.00000  Uiso   1.00
C199   C     0.33315   0.82777   0.77019   0.00000  Uiso   1.00
C200   C     0.40345   0.78093   0.77816   0.00000  Uiso   1.00
C201   C     0.42478   0.76089   0.72978   0.00000  Uiso   1.00
C202   C     0.28074   0.93390   0.78632   0.00000  Uiso   1.00
C203   C     0.30696   0.97629   0.80787   0.00000  Uiso   1.00
C204   C     0.28417   0.04560   0.77309   0.00000  Uiso   1.00
C205   C     0.22229   0.84085   0.82616   0.00000  Uiso   1.00
C206   C     0.19936   0.80503   0.88119   0.00000  Uiso   1.00
C207   C     0.12734   0.79602   0.87995   0.00000  Uiso   1.00
H208   H     0.17466   0.92451   0.67469   0.00000  Uiso   1.00
H209   H     0.27042   0.85380   0.62538   0.00000  Uiso   1.00
H210   H     0.17395   0.04913   0.65509   0.00000  Uiso   1.00
H211   H     0.06636   0.87789   0.72840   0.00000  Uiso   1.00
H212   H     0.39747   0.76399   0.59467   0.00000  Uiso   1.00
H213   H     0.19403   0.17586   0.65733   0.00000  Uiso   1.00
H214   H     0.96716   0.81478   0.81192   0.00000  Uiso   1.00
H215   H     0.33547   0.83643   0.85940   0.00000  Uiso   1.00
H216   H     0.44006   0.76088   0.82023   0.00000  Uiso   1.00
H217   H     0.34358   0.95621   0.84994   0.00000  Uiso   1.00
H218   H     0.23599   0.78498   0.92325   0.00000  Uiso   1.00
H219   H     0.53516   0.68857   0.75282   0.00000  Uiso   1.00
H220   H     0.33171   0.10045   0.81547   0.00000  Uiso   1.00
H221   H     0.10484   0.73936   0.97006   0.00000  Uiso   1.00
O222   O     0.53223   0.67819   0.64463   0.00000  Uiso   1.00
O223   O     0.26530   0.21855   0.72684   0.00000  Uiso   1.00
O224   O     0.96765   0.74482   0.92966   0.00000  Uiso   1.00
N225   N     0.41552   0.75660   0.63727   0.00000  Uiso   1.00
N226   N     0.22532   0.14167   0.69584   0.00000  Uiso   1.00
N227   N     0.01320   0.80411   0.84038   0.00000  Uiso   1.00
N228   N     0.48960   0.71602   0.72237   0.00000  Uiso   1.00
N229   N     0.29941   0.10109   0.78094   0.00000  Uiso   1.00
N230   N     0.08729   0.76353   0.92547   0.00000  Uiso   1.00
C231   C     0.47077   0.42650   0.25184   0.00000  Uiso   1.00
C232   C     0.47406   0.35150   0.26956   0.00000  Uiso   1.00
C233   C     0.53962   0.29768   0.28450   0.00000  Uiso   1.00
C234   C     0.53061   0.23281   0.29942   0.00000  Uiso   1.00
C235   C     0.54666   0.11797   0.32697   0.00000  Uiso   1.00
C236   C     0.42248   0.45094   0.29615   0.00000  Uiso   1.00
C237   C     0.44466   0.48075   0.33344   0.00000  Uiso   1.00
C238   C     0.39223   0.49960   0.37074   0.00000  Uiso   1.00
C239   C     0.32818   0.53919   0.43954   0.00000  Uiso   1.00
C240   C     0.42493   0.46367   0.18977   0.00000  Uiso   1.00
C241   C     0.44918   0.50420   0.13761   0.00000  Uiso   1.00
C242   C     0.39880   0.53378   0.08534   0.00000  Uiso   1.00
C243   C     0.33857   0.59313   0.98897   0.00000  Uiso   1.00
C244   C     0.33820   0.40698   0.25177   0.00000  Uiso   1.00
C245   C     0.40205   0.34090   0.26952   0.00000  Uiso   1.00
C246   C     0.39294   0.27609   0.28442   0.00000  Uiso   1.00
C247   C     0.45847   0.22219   0.29938   0.00000  Uiso   1.00
C248   C     0.35047   0.44034   0.29611   0.00000  Uiso   1.00
C249   C     0.29799   0.45916   0.33336   0.00000  Uiso   1.00
C250   C     0.32009   0.48898   0.37070   0.00000  Uiso   1.00
C251   C     0.35292   0.45307   0.18973   0.00000  Uiso   1.00
C252   C     0.30250   0.48260   0.13753   0.00000  Uiso   1.00
C253   C     0.32666   0.52316   0.08530   0.00000  Uiso   1.00
H254   H     0.52683   0.43475   0.25187   0.00000  Uiso   1.00
H255   H     0.59533   0.30591   0.28453   0.00000  Uiso   1.00
H256   H     0.50039   0.48895   0.33346   0.00000  Uiso   1.00
H257   H     0.50490   0.51239   0.13766   0.00000  Uiso   1.00
H258   H     0.63952   0.15839   0.32074   0.00000  Uiso   1.00
H259   H     0.43932   0.54436   0.42389   0.00000  Uiso   1.00
H260   H     0.44884   0.59379   0.01101   0.00000  Uiso   1.00
H261   H     0.28213   0.39873   0.25174   0.00000  Uiso   1.00
H262   H     0.33721   0.26791   0.28439   0.00000  Uiso   1.00
H263   H     0.24227   0.45095   0.33332   0.00000  Uiso   1.00
H264   H     0.24678   0.47439   0.13752   0.00000  Uiso   1.00
H265   H     0.43001   0.12754   0.32063   0.00000  Uiso   1.00
H266   H     0.22982   0.51352   0.42378   0.00000  Uiso   1.00
H267   H     0.23933   0.56294   0.01090   0.00000  Uiso   1.00
O268   O     0.57541   0.05755   0.34218   0.00000  Uiso   1.00
O269   O     0.31276   0.56395   0.47751   0.00000  Uiso   1.00
O270   O     0.32524   0.62879   0.93582   0.00000  Uiso   1.00
N271   N     0.58265   0.16908   0.31622   0.00000  Uiso   1.00
N272   N     0.39549   0.52994   0.41267   0.00000  Uiso   1.00
N273   N     0.40437   0.57616   0.02666   0.00000  Uiso   1.00
N274   N     0.46992   0.15248   0.31616   0.00000  Uiso   1.00
N275   N     0.28275   0.51334   0.41261   0.00000  Uiso   1.00
N276   N     0.29164   0.55956   0.02660   0.00000  Uiso   1.00
C277   C     0.14223   0.75442   0.64410   0.00000  Uiso   1.00
C278   C     0.08136   0.82263   0.62005   0.00000  Uiso   1.00
C279   C     0.09434   0.88630   0.59531   0.00000  Uiso   1.00
C280   C     0.03107   0.94254   0.57590   0.00000  Uiso   1.00
C281   C     0.94774   0.04954   0.53774   0.00000  Uiso   1.00
C282   C     0.12459   0.71269   0.60910   0.00000  Uiso   1.00
C283   C     0.17393   0.68392   0.57516   0.00000  Uiso   1.00
C284   C     0.14706   0.64759   0.54654   0.00000  Uiso   1.00
C285   C     0.13088   0.58387   0.49142   0.00000  Uiso   1.00
C286   C     0.12790   0.71880   0.70968   0.00000  Uiso   1.00
C287   C     0.18003   0.69515   0.76031   0.00000  Uiso   1.00
C288   C     0.15595   0.66395   0.81637   0.00000  Uiso   1.00
C289   C     0.14491   0.60972   0.91741   0.00000  Uiso   1.00
C290   C     0.00677   0.74106   0.65365   0.00000  Uiso   1.00
C291   C     0.00779   0.81537   0.62524   0.00000  Uiso   1.00
C292   C     0.94448   0.87152   0.60586   0.00000  Uiso   1.00
C293   C     0.95736   0.93527   0.58109   0.00000  Uiso   1.00
C294   C     0.05102   0.70543   0.61429   0.00000  Uiso   1.00
C295   C     0.02407   0.66914   0.58571   0.00000  Uiso   1.00
C296   C     0.07335   0.64032   0.55173   0.00000  Uiso   1.00
C297   C     0.05433   0.71154   0.71487   0.00000  Uiso   1.00
C298   C     0.03017   0.68037   0.77086   0.00000  Uiso   1.00
C299   C     0.08224   0.65668   0.82156   0.00000  Uiso   1.00
H300   H     0.19950   0.76007   0.64006   0.00000  Uiso   1.00
H301   H     0.15128   0.89190   0.59130   0.00000  Uiso   1.00
H302   H     0.23086   0.68954   0.57116   0.00000  Uiso   1.00
H303   H     0.23696   0.70077   0.75628   0.00000  Uiso   1.00
H304   H     0.06537   0.03485   0.53949   0.00000  Uiso   1.00
H305   H     0.23319   0.60814   0.49704   0.00000  Uiso   1.00
H306   H     0.24604   0.63183   0.88741   0.00000  Uiso   1.00
H307   H     0.94949   0.73541   0.65768   0.00000  Uiso   1.00
H308   H     0.88755   0.86589   0.60988   0.00000  Uiso   1.00
H309   H     0.96714   0.66353   0.58974   0.00000  Uiso   1.00
H310   H     0.97323   0.67477   0.77486   0.00000  Uiso   1.00
H311   H     0.85132   0.01374   0.55457   0.00000  Uiso   1.00
H312   H     0.01914   0.58703   0.51213   0.00000  Uiso   1.00
H313   H     0.03198   0.61072   0.90249   0.00000  Uiso   1.00
O314   O     0.92211   0.11057   0.51525   0.00000  Uiso   1.00
O315   O     0.14228   0.55074   0.45957   0.00000  Uiso   1.00
O316   O     0.15914   0.58182   0.97172   0.00000  Uiso   1.00
N317   N     0.02350   0.01198   0.54961   0.00000  Uiso   1.00
N318   N     0.18039   0.61304   0.50992   0.00000  Uiso   1.00
N319   N     0.19241   0.63517   0.87487   0.00000  Uiso   1.00
N320   N     0.90832   0.00062   0.55773   0.00000  Uiso   1.00
N321   N     0.06521   0.60168   0.51803   0.00000  Uiso   1.00
N322   N     0.07723   0.62381   0.88299   0.00000  Uiso   1.00
C323   C     0.02107   0.21258   0.90783   0.00000  Uiso   1.00
C324   C     0.00018   0.22077   0.96756   0.00000  Uiso   1.00
C325   C     0.92837   0.22863   0.98744   0.00000  Uiso   1.00
C326   C     0.92095   0.23533   0.04342   0.00000  Uiso   1.00
C327   C     0.87906   0.24819   0.13089   0.00000  Uiso   1.00
C328   C     0.08425   0.14612   0.92489   0.00000  Uiso   1.00
C329   C     0.08312   0.09123   0.90889   0.00000  Uiso   1.00
C330   C     0.14648   0.03510   0.92895   0.00000  Uiso   1.00
C331   C     0.23513   0.93209   0.95014   0.00000  Uiso   1.00
C332   C     0.05727   0.26941   0.87493   0.00000  Uiso   1.00
C333   C     0.03348   0.31816   0.81692   0.00000  Uiso   1.00
C334   C     0.07413   0.36582   0.79490   0.00000  Uiso   1.00
C335   C     0.12089   0.45422   0.73852   0.00000  Uiso   1.00
C336   C     0.13559   0.21050   0.97189   0.00000  Uiso   1.00
C337   C     0.06238   0.21964   0.00235   0.00000  Uiso   1.00
C338   C     0.05507   0.22633   0.05832   0.00000  Uiso   1.00
C339   C     0.98327   0.23421   0.07828   0.00000  Uiso   1.00
C340   C     0.14645   0.14500   0.95969   0.00000  Uiso   1.00
C341   C     0.20983   0.08894   0.97977   0.00000  Uiso   1.00
C342   C     0.20880   0.03397   0.96381   0.00000  Uiso   1.00
C343   C     0.11947   0.26828   0.90973   0.00000  Uiso   1.00
C344   C     0.16018   0.31587   0.88780   0.00000  Uiso   1.00
C345   C     0.13645   0.36469   0.82976   0.00000  Uiso   1.00
H346   H     0.97264   0.21345   0.88074   0.00000  Uiso   1.00
H347   H     0.88025   0.22949   0.96050   0.00000  Uiso   1.00
H348   H     0.03498   0.09212   0.88196   0.00000  Uiso   1.00
H349   H     0.98534   0.31902   0.79000   0.00000  Uiso   1.00
H350   H     0.80524   0.24676   0.06429   0.00000  Uiso   1.00
H351   H     0.13152   0.95711   0.89866   0.00000  Uiso   1.00
H352   H     0.02684   0.43556   0.70475   0.00000  Uiso   1.00
H353   H     0.18402   0.20962   0.99898   0.00000  Uiso   1.00
H354   H     0.10322   0.22546   0.08523   0.00000  Uiso   1.00
H355   H     0.25795   0.08809   0.00669   0.00000  Uiso   1.00
H356   H     0.20831   0.31498   0.91473   0.00000  Uiso   1.00
H357   H     0.98622   0.24348   0.16553   0.00000  Uiso   1.00
H358   H     0.31249   0.95383   0.99990   0.00000  Uiso   1.00
H359   H     0.20781   0.43229   0.80599   0.00000  Uiso   1.00
O360   O     0.83877   0.25558   0.16953   0.00000  Uiso   1.00
O361   O     0.26683   0.87558   0.95222   0.00000  Uiso   1.00
O362   O     0.12949   0.50330   0.69782   0.00000  Uiso   1.00
N363   N     0.85892   0.24383   0.07628   0.00000  Uiso   1.00
N364   N     0.16396   0.97302   0.92143   0.00000  Uiso   1.00
N365   N     0.06611   0.42032   0.74013   0.00000  Uiso   1.00
N366   N     0.95630   0.24206   0.13075   0.00000  Uiso   1.00
N367   N     0.26134   0.97126   0.97591   0.00000  Uiso   1.00
N368   N     0.16349   0.41856   0.79461   0.00000  Uiso   1.00
C369   C     0.50861   0.17357   0.12240   0.00000  Uiso   1.00
C370   C     0.54354   0.23292   0.09755   0.00000  Uiso   1.00
C371   C     0.60300   0.24211   0.12665   0.00000  Uiso   1.00
C372   C     0.62678   0.29970   0.09635   0.00000  Uiso   1.00
C373   C     0.68630   0.38474   0.06647   0.00000  Uiso   1.00
C374   C     0.51452   0.14131   0.07461   0.00000  Uiso   1.00
C375   C     0.54956   0.07348   0.08442   0.00000  Uiso   1.00
C376   C     0.54889   0.05395   0.03482   0.00000  Uiso   1.00
C377   C     0.56330   0.99675   0.96933   0.00000  Uiso   1.00
C378   C     0.42426   0.20535   0.12271   0.00000  Uiso   1.00
C379   C     0.38340   0.19136   0.17296   0.00000  Uiso   1.00
C380   C     0.30673   0.22575   0.16384   0.00000  Uiso   1.00
C381   C     0.18099   0.26799   0.17304   0.00000  Uiso   1.00
C382   C     0.44511   0.25949   0.01686   0.00000  Uiso   1.00
C383   C     0.50905   0.27958   0.04022   0.00000  Uiso   1.00
C384   C     0.53275   0.33718   0.00987   0.00000  Uiso   1.00
C385   C     0.59223   0.34646   0.03892   0.00000  Uiso   1.00
C386   C     0.48003   0.18797   0.01728   0.00000  Uiso   1.00
C387   C     0.47931   0.16854   0.96765   0.00000  Uiso   1.00
C388   C     0.51434   0.10070   0.97738   0.00000  Uiso   1.00
C389   C     0.38976   0.25203   0.06538   0.00000  Uiso   1.00
C390   C     0.31315   0.28643   0.05618   0.00000  Uiso   1.00
C391   C     0.27218   0.27250   0.10641   0.00000  Uiso   1.00
H392   H     0.53546   0.13723   0.16703   0.00000  Uiso   1.00
H393   H     0.62968   0.20598   0.17101   0.00000  Uiso   1.00
H394   H     0.57624   0.03737   0.12879   0.00000  Uiso   1.00
H395   H     0.41011   0.15524   0.21731   0.00000  Uiso   1.00
H396   H     0.71895   0.30277   0.15013   0.00000  Uiso   1.00
H397   H     0.60624   0.94725   0.06112   0.00000  Uiso   1.00
H398   H     0.25592   0.19580   0.24778   0.00000  Uiso   1.00
H399   H     0.41826   0.29583   0.97222   0.00000  Uiso   1.00
H400   H     0.50605   0.37328   0.96551   0.00000  Uiso   1.00
H401   H     0.45261   0.20467   0.92329   0.00000  Uiso   1.00
H402   H     0.28648   0.32255   0.01181   0.00000  Uiso   1.00
H403   H     0.61861   0.43856   0.98333   0.00000  Uiso   1.00
H404   H     0.50590   0.08303   0.89433   0.00000  Uiso   1.00
H405   H     0.15558   0.33159   0.08099   0.00000  Uiso   1.00
O406   O     0.72867   0.41874   0.06582   0.00000  Uiso   1.00
O407   O     0.58078   0.95231   0.94905   0.00000  Uiso   1.00
O408   O     0.12117   0.27841   0.19395   0.00000  Uiso   1.00
N409   N     0.68328   0.32410   0.11180   0.00000  Uiso   1.00
N410   N     0.57791   0.99171   0.02858   0.00000  Uiso   1.00
N411   N     0.25038   0.22408   0.20309   0.00000  Uiso   1.00
N412   N     0.62929   0.39717   0.02205   0.00000  Uiso   1.00
N413   N     0.52392   0.06478   0.93883   0.00000  Uiso   1.00
N414   N     0.19639   0.29715   0.11334   0.00000  Uiso   1.00
C415   C     0.20627   0.27941   0.38199   0.00000  Uiso   1.00
C416   C     0.22413   0.28873   0.44069   0.00000  Uiso   1.00
C417   C     0.27924   0.31777   0.45063   0.00000  Uiso   1.00
C418   C     0.28677   0.32163   0.50745   0.00000  Uiso   1.00
C419   C     0.32152   0.33978   0.59173   0.00000  Uiso   1.00
C420   C     0.21455   0.20352   0.39952   0.00000  Uiso   1.00
C421   C     0.26159   0.16092   0.37484   0.00000  Uiso   1.00
C422   C     0.26104   0.09305   0.39699   0.00000  Uiso   1.00
C423   C     0.28087   0.97892   0.41733   0.00000  Uiso   1.00
C424   C     0.12215   0.31528   0.36279   0.00000  Uiso   1.00
C425   C     0.09150   0.36664   0.30721   0.00000  Uiso   1.00
C426   C     0.01316   0.39285   0.29843   0.00000  Uiso   1.00
C427   C     0.88953   0.45224   0.26174   0.00000  Uiso   1.00
C428   C     0.12165   0.23463   0.46522   0.00000  Uiso   1.00
C429   C     0.17817   0.26441   0.48590   0.00000  Uiso   1.00
C430   C     0.18562   0.26823   0.54272   0.00000  Uiso   1.00
C431   C     0.24072   0.29727   0.55274   0.00000  Uiso   1.00
C432   C     0.16859   0.17920   0.44473   0.00000  Uiso   1.00
C433   C     0.16796   0.11138   0.46693   0.00000  Uiso   1.00
C434   C     0.21499   0.06868   0.44229   0.00000  Uiso   1.00
C435   C     0.07619   0.29096   0.40800   0.00000  Uiso   1.00
C436   C     0.99788   0.31709   0.39930   0.00000  Uiso   1.00
C437   C     0.96711   0.36849   0.34372   0.00000  Uiso   1.00
H438   H     0.24206   0.29834   0.34679   0.00000  Uiso   1.00
H439   H     0.31480   0.33658   0.41563   0.00000  Uiso   1.00
H440   H     0.29714   0.17976   0.33985   0.00000  Uiso   1.00
H441   H     0.12709   0.38545   0.27223   0.00000  Uiso   1.00
H442   H     0.37520   0.36823   0.51190   0.00000  Uiso   1.00
H443   H     0.33795   0.03756   0.35209   0.00000  Uiso   1.00
H444   H     0.97935   0.47130   0.20951   0.00000  Uiso   1.00
H445   H     0.08587   0.21569   0.50042   0.00000  Uiso   1.00
H446   H     0.15004   0.24940   0.57770   0.00000  Uiso   1.00
H447   H     0.13239   0.09257   0.50191   0.00000  Uiso   1.00
H448   H     0.96233   0.29826   0.43430   0.00000  Uiso   1.00
H449   H     0.24148   0.29747   0.64344   0.00000  Uiso   1.00
H450   H     0.20423   0.96680   0.48363   0.00000  Uiso   1.00
H451   H     0.84563   0.40053   0.34105   0.00000  Uiso   1.00
O452   O     0.35339   0.35650   0.62574   0.00000  Uiso   1.00
O453   O     0.30451   0.92268   0.41606   0.00000  Uiso   1.00
O454   O     0.83404   0.49172   0.22901   0.00000  Uiso   1.00
N455   N     0.33491   0.34697   0.53225   0.00000  Uiso   1.00
N456   N     0.30010   0.03781   0.38284   0.00000  Uiso   1.00
N457   N     0.96483   0.44330   0.24954   0.00000  Uiso   1.00
N458   N     0.26296   0.30889   0.60303   0.00000  Uiso   1.00
N459   N     0.22814   0.99973   0.45362   0.00000  Uiso   1.00
N460   N     0.89288   0.40522   0.32032   0.00000  Uiso   1.00
C461   C     0.63549   0.08315   0.57000   0.00000  Uiso   1.00
C462   C     0.58351   0.10525   0.61362   0.00000  Uiso   1.00
C463   C     0.59959   0.08229   0.67615   0.00000  Uiso   1.00
C464   C     0.54461   0.10868   0.70803   0.00000  Uiso   1.00
C465   C     0.47431   0.13573   0.78027   0.00000  Uiso   1.00
C466   C     0.58974   0.05592   0.53585   0.00000  Uiso   1.00
C467   C     0.61107   0.99148   0.53300   0.00000  Uiso   1.00
C468   C     0.56134   0.97635   0.49941   0.00000  Uiso   1.00
C469   C     0.50074   0.92683   0.45089   0.00000  Uiso   1.00
C470   C     0.64672   0.14837   0.52311   0.00000  Uiso   1.00
C471   C     0.71595   0.16165   0.50953   0.00000  Uiso   1.00
C472   C     0.71419   0.22435   0.46519   0.00000  Uiso   1.00
C473   C     0.74206   0.31837   0.39688   0.00000  Uiso   1.00
C474   C     0.50927   0.17086   0.51540   0.00000  Uiso   1.00
C475   C     0.51495   0.15289   0.58396   0.00000  Uiso   1.00
C476   C     0.45994   0.17933   0.61574   0.00000  Uiso   1.00
C477   C     0.47593   0.15641   0.67832   0.00000  Uiso   1.00
C478   C     0.52118   0.10356   0.50620   0.00000  Uiso   1.00
C479   C     0.47142   0.08852   0.47260   0.00000  Uiso   1.00
C480   C     0.49266   0.02408   0.46970   0.00000  Uiso   1.00
C481   C     0.57816   0.19601   0.49345   0.00000  Uiso   1.00
C482   C     0.57629   0.25870   0.44913   0.00000  Uiso   1.00
C483   C     0.64551   0.27208   0.43548   0.00000  Uiso   1.00
H484   H     0.68887   0.04606   0.59308   0.00000  Uiso   1.00
H485   H     0.65265   0.04542   0.69909   0.00000  Uiso   1.00
H486   H     0.66413   0.95463   0.55595   0.00000  Uiso   1.00
H487   H     0.76899   0.12478   0.53249   0.00000  Uiso   1.00
H488   H     0.58225   0.06570   0.80353   0.00000  Uiso   1.00
H489   H     0.60647   0.87427   0.50171   0.00000  Uiso   1.00
H490   H     0.82760   0.23306   0.45223   0.00000  Uiso   1.00
H491   H     0.45589   0.20795   0.49231   0.00000  Uiso   1.00
H492   H     0.40688   0.21619   0.59278   0.00000  Uiso   1.00
H493   H     0.41837   0.12540   0.44965   0.00000  Uiso   1.00
H494   H     0.52323   0.29555   0.42618   0.00000  Uiso   1.00
H495   H     0.38278   0.20430   0.71725   0.00000  Uiso   1.00
H496   H     0.40700   0.01288   0.41543   0.00000  Uiso   1.00
H497   H     0.62812   0.37167   0.36595   0.00000  Uiso   1.00
O498   O     0.45447   0.13748   0.82831   0.00000  Uiso   1.00
O499   O     0.48626   0.88635   0.43232   0.00000  Uiso   1.00
O500   O     0.77637   0.35707   0.36740   0.00000  Uiso   1.00
N501   N     0.54204   0.09720   0.76944   0.00000  Uiso   1.00
N502   N     0.56468   0.91822   0.48726   0.00000  Uiso   1.00
N503   N     0.77141   0.25365   0.44098   0.00000  Uiso   1.00
N504   N     0.43470   0.17178   0.72301   0.00000  Uiso   1.00
N505   N     0.45734   0.99281   0.44084   0.00000  Uiso   1.00
N506   N     0.66407   0.32824   0.39456   0.00000  Uiso   1.00
C507   C     0.57102   0.68540   0.01170   0.00000  Uiso   1.00
C508   C     0.63641   0.71667   0.99162   0.00000  Uiso   1.00
C509   C     0.63205   0.78550   0.97240   0.00000  Uiso   1.00
C510   C     0.69822   0.80385   0.95592   0.00000  Uiso   1.00
C511   C     0.78939   0.85984   0.92431   0.00000  Uiso   1.00
C512   C     0.56533   0.64578   0.97124   0.00000  Uiso   1.00
C513   C     0.50121   0.65501   0.93490   0.00000  Uiso   1.00
C514   C     0.50754   0.61368   0.90127   0.00000  Uiso   1.00
C515   C     0.48834   0.55958   0.83805   0.00000  Uiso   1.00
C516   C     0.59715   0.63220   0.07560   0.00000  Uiso   1.00
C517   C     0.55979   0.62999   0.12700   0.00000  Uiso   1.00
C518   C     0.59291   0.57722   0.18124   0.00000  Uiso   1.00
C519   C     0.62313   0.50202   0.28006   0.00000  Uiso   1.00
C520   C     0.69627   0.59560   0.01662   0.00000  Uiso   1.00
C521   C     0.70444   0.66789   0.99429   0.00000  Uiso   1.00
C522   C     0.77063   0.68615   0.97784   0.00000  Uiso   1.00
C523   C     0.76638   0.75499   0.95860   0.00000  Uiso   1.00
C524   C     0.63336   0.59701   0.97391   0.00000  Uiso   1.00
C525   C     0.63979   0.55566   0.94033   0.00000  Uiso   1.00
C526   C     0.57570   0.56482   0.90394   0.00000  Uiso   1.00
C527   C     0.66519   0.58343   0.07827   0.00000  Uiso   1.00
C528   C     0.69837   0.53064   0.13244   0.00000  Uiso   1.00
C529   C     0.66106   0.52835   0.18391   0.00000  Uiso   1.00
H530   H     0.51805   0.72337   0.00962   0.00000  Uiso   1.00
H531   H     0.57939   0.82323   0.97034   0.00000  Uiso   1.00
H532   H     0.44856   0.69275   0.93284   0.00000  Uiso   1.00
H533   H     0.50714   0.66774   0.12492   0.00000  Uiso   1.00
H534   H     0.67739   0.91244   0.92794   0.00000  Uiso   1.00
H535   H     0.40153   0.63731   0.84890   0.00000  Uiso   1.00
H536   H     0.52504   0.58456   0.25393   0.00000  Uiso   1.00
H537   H     0.74924   0.55762   0.01869   0.00000  Uiso   1.00
H538   H     0.82327   0.64839   0.97991   0.00000  Uiso   1.00
H539   H     0.69244   0.51792   0.94241   0.00000  Uiso   1.00
H540   H     0.75102   0.49291   0.13449   0.00000  Uiso   1.00
H541   H     0.87534   0.77054   0.93570   0.00000  Uiso   1.00
H542   H     0.59947   0.49540   0.85666   0.00000  Uiso   1.00
H543   H     0.72299   0.44266   0.26169   0.00000  Uiso   1.00
O544   O     0.82089   0.90419   0.90612   0.00000  Uiso   1.00
O545   O     0.45896   0.54322   0.80244   0.00000  Uiso   1.00
O546   O     0.62101   0.47403   0.33383   0.00000  Uiso   1.00
N547   N     0.71382   0.86658   0.93510   0.00000  Uiso   1.00
N548   N     0.45591   0.60936   0.86119   0.00000  Uiso   1.00
N549   N     0.57138   0.56004   0.23986   0.00000  Uiso   1.00
N550   N     0.82034   0.79023   0.93928   0.00000  Uiso   1.00
N551   N     0.56242   0.53300   0.86537   0.00000  Uiso   1.00
N552   N     0.67789   0.48368   0.24404   0.00000  Uiso   1.00
