data_job_03768
_audit_creation_date              2018-12-19
_audit_creation_method            'Materials Studio'
_symmetry_space_group_name_H-M    'P1'
_symmetry_Int_Tables_number       1
_symmetry_cell_setting            triclinic
loop_
_symmetry_equiv_pos_as_xyz
  x,y,z
_cell_length_a                    18.3586
_cell_length_b                    18.0460
_cell_length_c                    20.2965
_cell_angle_alpha                 90.0000
_cell_angle_beta                  90.0000
_cell_angle_gamma                 90.0000
loop_
_atom_site_label
_atom_site_type_symbol
_atom_site_fract_x
_atom_site_fract_y
_atom_site_fract_z
_atom_site_U_iso_or_equiv
_atom_site_adp_type
_atom_site_occupancy
C1     C     0.68942   0.39524   0.81226   0.00000  Uiso   1.00
C2     C     0.65551   0.41856   0.74688   0.00000  Uiso   1.00
C3     C     0.68289   0.40235   0.68480   0.00000  Uiso   1.00
C4     C     0.64386   0.42870   0.63110   0.00000  Uiso   1.00
C5     C     0.60097   0.45868   0.52834   0.00000  Uiso   1.00
C6     C     0.70143   0.46653   0.85111   0.00000  Uiso   1.00
C7     C     0.76742   0.49065   0.87667   0.00000  Uiso   1.00
C8     C     0.76705   0.55739   0.91071   0.00000  Uiso   1.00
C9     C     0.79544   0.66183   0.96981   0.00000  Uiso   1.00
C10    C     0.63048   0.35248   0.84908   0.00000  Uiso   1.00
C11    C     0.63681   0.28070   0.87295   0.00000  Uiso   1.00
C12    C     0.57671   0.25141   0.90530   0.00000  Uiso   1.00
C13    C     0.49494   0.17875   0.96125   0.00000  Uiso   1.00
C14    C     0.57143   0.47087   0.82728   0.00000  Uiso   1.00
C15    C     0.59142   0.45964   0.75504   0.00000  Uiso   1.00
C16    C     0.55234   0.48602   0.70142   0.00000  Uiso   1.00
C17    C     0.57966   0.46985   0.63927   0.00000  Uiso   1.00
C18    C     0.63735   0.50761   0.85927   0.00000  Uiso   1.00
C19    C     0.63688   0.57432   0.89328   0.00000  Uiso   1.00
C20    C     0.70285   0.59854   0.91888   0.00000  Uiso   1.00
C21    C     0.56639   0.39355   0.85724   0.00000  Uiso   1.00
C22    C     0.50627   0.36437   0.88956   0.00000  Uiso   1.00
C23    C     0.51251   0.29256   0.91347   0.00000  Uiso   1.00
H24    H     0.73932   0.36327   0.80591   0.00000  Uiso   1.00
H25    H     0.73249   0.37056   0.67851   0.00000  Uiso   1.00
H26    H     0.81700   0.45885   0.87035   0.00000  Uiso   1.00
H27    H     0.68642   0.24893   0.86663   0.00000  Uiso   1.00
H28    H     0.69667   0.39679   0.54086   0.00000  Uiso   1.00
H29    H     0.87487   0.58293   0.94539   0.00000  Uiso   1.00
H30    H     0.59950   0.14027   0.93754   0.00000  Uiso   1.00
H31    H     0.52154   0.50285   0.83363   0.00000  Uiso   1.00
H32    H     0.50275   0.51781   0.70774   0.00000  Uiso   1.00
H33    H     0.58727   0.60610   0.89959   0.00000  Uiso   1.00
H34    H     0.45668   0.39617   0.89586   0.00000  Uiso   1.00
H35    H     0.51021   0.51630   0.56458   0.00000  Uiso   1.00
H36    H     0.68841   0.70245   0.96912   0.00000  Uiso   1.00
H37    H     0.41304   0.25978   0.96127   0.00000  Uiso   1.00
O38    O     0.59502   0.46388   0.46941   0.00000  Uiso   1.00
O39    O     0.82881   0.70809   0.00015   0.00000  Uiso   1.00
O40    O     0.46754   0.12733   0.98985   0.00000  Uiso   1.00
N41    N     0.65535   0.42285   0.56372   0.00000  Uiso   1.00
N42    N     0.82196   0.59689   0.94192   0.00000  Uiso   1.00
N43    N     0.56453   0.18304   0.93460   0.00000  Uiso   1.00
N44    N     0.55502   0.48716   0.57649   0.00000  Uiso   1.00
N45    N     0.72163   0.66120   0.95469   0.00000  Uiso   1.00
N46    N     0.46419   0.24735   0.94736   0.00000  Uiso   1.00
C47    C     0.81058   0.10476   0.81226   0.00000  Uiso   1.00
C48    C     0.84449   0.08144   0.74688   0.00000  Uiso   1.00
C49    C     0.81711   0.09765   0.68480   0.00000  Uiso   1.00
C50    C     0.85614   0.07130   0.63110   0.00000  Uiso   1.00
C51    C     0.89903   0.04132   0.52834   0.00000  Uiso   1.00
C52    C     0.79857   0.03347   0.85111   0.00000  Uiso   1.00
C53    C     0.73258   0.00935   0.87667   0.00000  Uiso   1.00
C54    C     0.73295   0.94261   0.91071   0.00000  Uiso   1.00
C55    C     0.70456   0.83817   0.96981   0.00000  Uiso   1.00
C56    C     0.86952   0.14752   0.84908   0.00000  Uiso   1.00
C57    C     0.86319   0.21930   0.87295   0.00000  Uiso   1.00
C58    C     0.92329   0.24859   0.90530   0.00000  Uiso   1.00
C59    C     0.00506   0.32125   0.96125   0.00000  Uiso   1.00
C60    C     0.92857   0.02913   0.82728   0.00000  Uiso   1.00
C61    C     0.90858   0.04036   0.75504   0.00000  Uiso   1.00
C62    C     0.94766   0.01398   0.70142   0.00000  Uiso   1.00
C63    C     0.92034   0.03015   0.63927   0.00000  Uiso   1.00
C64    C     0.86265   0.99239   0.85927   0.00000  Uiso   1.00
C65    C     0.86312   0.92568   0.89328   0.00000  Uiso   1.00
C66    C     0.79715   0.90146   0.91888   0.00000  Uiso   1.00
C67    C     0.93361   0.10645   0.85724   0.00000  Uiso   1.00
C68    C     0.99373   0.13563   0.88956   0.00000  Uiso   1.00
C69    C     0.98749   0.20744   0.91347   0.00000  Uiso   1.00
H70    H     0.76068   0.13673   0.80591   0.00000  Uiso   1.00
H71    H     0.76751   0.12944   0.67851   0.00000  Uiso   1.00
H72    H     0.68300   0.04115   0.87035   0.00000  Uiso   1.00
H73    H     0.81358   0.25107   0.86663   0.00000  Uiso   1.00
H74    H     0.80333   0.10321   0.54086   0.00000  Uiso   1.00
H75    H     0.62513   0.91707   0.94539   0.00000  Uiso   1.00
H76    H     0.90050   0.35973   0.93754   0.00000  Uiso   1.00
H77    H     0.97846   0.99715   0.83363   0.00000  Uiso   1.00
H78    H     0.99725   0.98219   0.70774   0.00000  Uiso   1.00
H79    H     0.91273   0.89390   0.89959   0.00000  Uiso   1.00
H80    H     0.04332   0.10383   0.89586   0.00000  Uiso   1.00
H81    H     0.98979   0.98370   0.56458   0.00000  Uiso   1.00
H82    H     0.81159   0.79755   0.96912   0.00000  Uiso   1.00
H83    H     0.08696   0.24022   0.96127   0.00000  Uiso   1.00
O84    O     0.90498   0.03612   0.46941   0.00000  Uiso   1.00
O85    O     0.67119   0.79191   0.00015   0.00000  Uiso   1.00
O86    O     0.03246   0.37267   0.98985   0.00000  Uiso   1.00
N87    N     0.84465   0.07715   0.56372   0.00000  Uiso   1.00
N88    N     0.67804   0.90311   0.94192   0.00000  Uiso   1.00
N89    N     0.93547   0.31696   0.93460   0.00000  Uiso   1.00
N90    N     0.94498   0.01284   0.57649   0.00000  Uiso   1.00
N91    N     0.77837   0.83880   0.95469   0.00000  Uiso   1.00
N92    N     0.03581   0.25265   0.94736   0.00000  Uiso   1.00
C93    C     0.31058   0.89524   0.68774   0.00000  Uiso   1.00
C94    C     0.34449   0.91856   0.75312   0.00000  Uiso   1.00
C95    C     0.31711   0.90235   0.81520   0.00000  Uiso   1.00
C96    C     0.35614   0.92870   0.86890   0.00000  Uiso   1.00
C97    C     0.39903   0.95868   0.97166   0.00000  Uiso   1.00
C98    C     0.29857   0.96653   0.64889   0.00000  Uiso   1.00
C99    C     0.23258   0.99065   0.62333   0.00000  Uiso   1.00
C100   C     0.23295   0.05739   0.58929   0.00000  Uiso   1.00
C101   C     0.20456   0.16183   0.53019   0.00000  Uiso   1.00
C102   C     0.36952   0.85248   0.65092   0.00000  Uiso   1.00
C103   C     0.36319   0.78070   0.62705   0.00000  Uiso   1.00
C104   C     0.42329   0.75141   0.59470   0.00000  Uiso   1.00
C105   C     0.50506   0.67875   0.53875   0.00000  Uiso   1.00
C106   C     0.42857   0.97087   0.67272   0.00000  Uiso   1.00
C107   C     0.40858   0.95964   0.74496   0.00000  Uiso   1.00
C108   C     0.44766   0.98602   0.79858   0.00000  Uiso   1.00
C109   C     0.42034   0.96985   0.86073   0.00000  Uiso   1.00
C110   C     0.36265   0.00761   0.64073   0.00000  Uiso   1.00
C111   C     0.36312   0.07432   0.60672   0.00000  Uiso   1.00
C112   C     0.29715   0.09854   0.58112   0.00000  Uiso   1.00
C113   C     0.43361   0.89355   0.64276   0.00000  Uiso   1.00
C114   C     0.49373   0.86437   0.61044   0.00000  Uiso   1.00
C115   C     0.48749   0.79256   0.58653   0.00000  Uiso   1.00
H116   H     0.26068   0.86327   0.69409   0.00000  Uiso   1.00
H117   H     0.26751   0.87056   0.82149   0.00000  Uiso   1.00
H118   H     0.18300   0.95885   0.62965   0.00000  Uiso   1.00
H119   H     0.31358   0.74893   0.63337   0.00000  Uiso   1.00
H120   H     0.30333   0.89679   0.95914   0.00000  Uiso   1.00
H121   H     0.12513   0.08293   0.55461   0.00000  Uiso   1.00
H122   H     0.40050   0.64027   0.56246   0.00000  Uiso   1.00
H123   H     0.47846   0.00285   0.66637   0.00000  Uiso   1.00
H124   H     0.49725   0.01781   0.79226   0.00000  Uiso   1.00
H125   H     0.41273   0.10610   0.60041   0.00000  Uiso   1.00
H126   H     0.54332   0.89617   0.60414   0.00000  Uiso   1.00
H127   H     0.48979   0.01630   0.93542   0.00000  Uiso   1.00
H128   H     0.31159   0.20245   0.53088   0.00000  Uiso   1.00
H129   H     0.58696   0.75978   0.53873   0.00000  Uiso   1.00
O130   O     0.40498   0.96388   0.03059   0.00000  Uiso   1.00
O131   O     0.17119   0.20809   0.49985   0.00000  Uiso   1.00
O132   O     0.53246   0.62733   0.51015   0.00000  Uiso   1.00
N133   N     0.34465   0.92285   0.93628   0.00000  Uiso   1.00
N134   N     0.17804   0.09689   0.55808   0.00000  Uiso   1.00
N135   N     0.43547   0.68304   0.56540   0.00000  Uiso   1.00
N136   N     0.44498   0.98716   0.92351   0.00000  Uiso   1.00
N137   N     0.27837   0.16120   0.54531   0.00000  Uiso   1.00
N138   N     0.53581   0.74735   0.55264   0.00000  Uiso   1.00
C139   C     0.18942   0.60476   0.68774   0.00000  Uiso   1.00
C140   C     0.15551   0.58144   0.75312   0.00000  Uiso   1.00
C141   C     0.18289   0.59765   0.81520   0.00000  Uiso   1.00
C142   C     0.14386   0.57130   0.86890   0.00000  Uiso   1.00
C143   C     0.10097   0.54132   0.97166   0.00000  Uiso   1.00
C144   C     0.20143   0.53347   0.64889   0.00000  Uiso   1.00
C145   C     0.26742   0.50935   0.62333   0.00000  Uiso   1.00
C146   C     0.26705   0.44261   0.58929   0.00000  Uiso   1.00
C147   C     0.29544   0.33817   0.53019   0.00000  Uiso   1.00
C148   C     0.13048   0.64752   0.65092   0.00000  Uiso   1.00
C149   C     0.13681   0.71930   0.62705   0.00000  Uiso   1.00
C150   C     0.07671   0.74859   0.59470   0.00000  Uiso   1.00
C151   C     0.99494   0.82125   0.53875   0.00000  Uiso   1.00
C152   C     0.07143   0.52913   0.67272   0.00000  Uiso   1.00
C153   C     0.09142   0.54036   0.74496   0.00000  Uiso   1.00
C154   C     0.05234   0.51398   0.79858   0.00000  Uiso   1.00
C155   C     0.07966   0.53015   0.86073   0.00000  Uiso   1.00
C156   C     0.13735   0.49239   0.64073   0.00000  Uiso   1.00
C157   C     0.13688   0.42568   0.60672   0.00000  Uiso   1.00
C158   C     0.20285   0.40146   0.58112   0.00000  Uiso   1.00
C159   C     0.06639   0.60645   0.64276   0.00000  Uiso   1.00
C160   C     0.00627   0.63563   0.61044   0.00000  Uiso   1.00
C161   C     0.01251   0.70744   0.58653   0.00000  Uiso   1.00
H162   H     0.23932   0.63673   0.69409   0.00000  Uiso   1.00
H163   H     0.23249   0.62944   0.82149   0.00000  Uiso   1.00
H164   H     0.31700   0.54115   0.62965   0.00000  Uiso   1.00
H165   H     0.18642   0.75107   0.63337   0.00000  Uiso   1.00
H166   H     0.19667   0.60321   0.95914   0.00000  Uiso   1.00
H167   H     0.37487   0.41707   0.55461   0.00000  Uiso   1.00
H168   H     0.09950   0.85973   0.56246   0.00000  Uiso   1.00
H169   H     0.02154   0.49715   0.66637   0.00000  Uiso   1.00
H170   H     0.00275   0.48219   0.79226   0.00000  Uiso   1.00
H171   H     0.08727   0.39390   0.60041   0.00000  Uiso   1.00
H172   H     0.95668   0.60383   0.60414   0.00000  Uiso   1.00
H173   H     0.01021   0.48370   0.93542   0.00000  Uiso   1.00
H174   H     0.18841   0.29755   0.53088   0.00000  Uiso   1.00
H175   H     0.91304   0.74022   0.53873   0.00000  Uiso   1.00
O176   O     0.09502   0.53612   0.03059   0.00000  Uiso   1.00
O177   O     0.32881   0.29191   0.49985   0.00000  Uiso   1.00
O178   O     0.96754   0.87267   0.51015   0.00000  Uiso   1.00
N179   N     0.15535   0.57715   0.93628   0.00000  Uiso   1.00
N180   N     0.32196   0.40311   0.55808   0.00000  Uiso   1.00
N181   N     0.06453   0.81696   0.56540   0.00000  Uiso   1.00
N182   N     0.05502   0.51284   0.92351   0.00000  Uiso   1.00
N183   N     0.22163   0.33880   0.54531   0.00000  Uiso   1.00
N184   N     0.96419   0.75265   0.55264   0.00000  Uiso   1.00
C185   C     0.31058   0.60476   0.18774   0.00000  Uiso   1.00
C186   C     0.34449   0.58144   0.25312   0.00000  Uiso   1.00
C187   C     0.31711   0.59765   0.31520   0.00000  Uiso   1.00
C188   C     0.35614   0.57130   0.36890   0.00000  Uiso   1.00
C189   C     0.39903   0.54132   0.47166   0.00000  Uiso   1.00
C190   C     0.29857   0.53347   0.14889   0.00000  Uiso   1.00
C191   C     0.23258   0.50935   0.12333   0.00000  Uiso   1.00
C192   C     0.23295   0.44261   0.08929   0.00000  Uiso   1.00
C193   C     0.20456   0.33817   0.03019   0.00000  Uiso   1.00
C194   C     0.36952   0.64752   0.15092   0.00000  Uiso   1.00
C195   C     0.36319   0.71930   0.12705   0.00000  Uiso   1.00
C196   C     0.42329   0.74859   0.09470   0.00000  Uiso   1.00
C197   C     0.50506   0.82125   0.03875   0.00000  Uiso   1.00
C198   C     0.42857   0.52913   0.17272   0.00000  Uiso   1.00
C199   C     0.40858   0.54036   0.24496   0.00000  Uiso   1.00
C200   C     0.44766   0.51398   0.29858   0.00000  Uiso   1.00
C201   C     0.42034   0.53015   0.36073   0.00000  Uiso   1.00
C202   C     0.36265   0.49239   0.14073   0.00000  Uiso   1.00
C203   C     0.36312   0.42568   0.10672   0.00000  Uiso   1.00
C204   C     0.29715   0.40146   0.08112   0.00000  Uiso   1.00
C205   C     0.43361   0.60645   0.14276   0.00000  Uiso   1.00
C206   C     0.49373   0.63563   0.11044   0.00000  Uiso   1.00
C207   C     0.48749   0.70744   0.08653   0.00000  Uiso   1.00
H208   H     0.26068   0.63673   0.19409   0.00000  Uiso   1.00
H209   H     0.26751   0.62944   0.32149   0.00000  Uiso   1.00
H210   H     0.18300   0.54115   0.12965   0.00000  Uiso   1.00
H211   H     0.31358   0.75107   0.13337   0.00000  Uiso   1.00
H212   H     0.30333   0.60321   0.45914   0.00000  Uiso   1.00
H213   H     0.12513   0.41707   0.05461   0.00000  Uiso   1.00
H214   H     0.40050   0.85973   0.06246   0.00000  Uiso   1.00
H215   H     0.47846   0.49715   0.16637   0.00000  Uiso   1.00
H216   H     0.49725   0.48219   0.29226   0.00000  Uiso   1.00
H217   H     0.41273   0.39390   0.10041   0.00000  Uiso   1.00
H218   H     0.54332   0.60383   0.10414   0.00000  Uiso   1.00
H219   H     0.48979   0.48370   0.43542   0.00000  Uiso   1.00
H220   H     0.31159   0.29755   0.03088   0.00000  Uiso   1.00
H221   H     0.58696   0.74022   0.03873   0.00000  Uiso   1.00
O222   O     0.40498   0.53612   0.53059   0.00000  Uiso   1.00
O223   O     0.17119   0.29191   0.99985   0.00000  Uiso   1.00
O224   O     0.53246   0.87267   0.01015   0.00000  Uiso   1.00
N225   N     0.34465   0.57715   0.43628   0.00000  Uiso   1.00
N226   N     0.17804   0.40311   0.05808   0.00000  Uiso   1.00
N227   N     0.43547   0.81696   0.06540   0.00000  Uiso   1.00
N228   N     0.44498   0.51284   0.42351   0.00000  Uiso   1.00
N229   N     0.27837   0.33880   0.04531   0.00000  Uiso   1.00
N230   N     0.53581   0.75265   0.05264   0.00000  Uiso   1.00
C231   C     0.18942   0.89524   0.18774   0.00000  Uiso   1.00
C232   C     0.15551   0.91856   0.25312   0.00000  Uiso   1.00
C233   C     0.18289   0.90235   0.31520   0.00000  Uiso   1.00
C234   C     0.14386   0.92870   0.36890   0.00000  Uiso   1.00
C235   C     0.10097   0.95868   0.47166   0.00000  Uiso   1.00
C236   C     0.20143   0.96653   0.14889   0.00000  Uiso   1.00
C237   C     0.26742   0.99065   0.12333   0.00000  Uiso   1.00
C238   C     0.26705   0.05739   0.08929   0.00000  Uiso   1.00
C239   C     0.29544   0.16183   0.03019   0.00000  Uiso   1.00
C240   C     0.13048   0.85248   0.15092   0.00000  Uiso   1.00
C241   C     0.13681   0.78070   0.12705   0.00000  Uiso   1.00
C242   C     0.07671   0.75141   0.09470   0.00000  Uiso   1.00
C243   C     0.99494   0.67875   0.03875   0.00000  Uiso   1.00
C244   C     0.07143   0.97087   0.17272   0.00000  Uiso   1.00
C245   C     0.09142   0.95964   0.24496   0.00000  Uiso   1.00
C246   C     0.05234   0.98602   0.29858   0.00000  Uiso   1.00
C247   C     0.07966   0.96985   0.36073   0.00000  Uiso   1.00
C248   C     0.13735   0.00761   0.14073   0.00000  Uiso   1.00
C249   C     0.13688   0.07432   0.10672   0.00000  Uiso   1.00
C250   C     0.20285   0.09854   0.08112   0.00000  Uiso   1.00
C251   C     0.06639   0.89355   0.14276   0.00000  Uiso   1.00
C252   C     0.00627   0.86437   0.11044   0.00000  Uiso   1.00
C253   C     0.01251   0.79256   0.08653   0.00000  Uiso   1.00
H254   H     0.23932   0.86327   0.19409   0.00000  Uiso   1.00
H255   H     0.23249   0.87056   0.32149   0.00000  Uiso   1.00
H256   H     0.31700   0.95885   0.12965   0.00000  Uiso   1.00
H257   H     0.18642   0.74893   0.13337   0.00000  Uiso   1.00
H258   H     0.19667   0.89679   0.45914   0.00000  Uiso   1.00
H259   H     0.37487   0.08293   0.05461   0.00000  Uiso   1.00
H260   H     0.09950   0.64027   0.06246   0.00000  Uiso   1.00
H261   H     0.02154   0.00285   0.16637   0.00000  Uiso   1.00
H262   H     0.00275   0.01781   0.29226   0.00000  Uiso   1.00
H263   H     0.08727   0.10610   0.10041   0.00000  Uiso   1.00
H264   H     0.95668   0.89617   0.10414   0.00000  Uiso   1.00
H265   H     0.01021   0.01630   0.43542   0.00000  Uiso   1.00
H266   H     0.18841   0.20245   0.03088   0.00000  Uiso   1.00
H267   H     0.91304   0.75978   0.03873   0.00000  Uiso   1.00
O268   O     0.09502   0.96388   0.53059   0.00000  Uiso   1.00
O269   O     0.32881   0.20809   0.99985   0.00000  Uiso   1.00
O270   O     0.96754   0.62733   0.01015   0.00000  Uiso   1.00
N271   N     0.15535   0.92285   0.43628   0.00000  Uiso   1.00
N272   N     0.32196   0.09689   0.05808   0.00000  Uiso   1.00
N273   N     0.06453   0.68304   0.06540   0.00000  Uiso   1.00
N274   N     0.05502   0.98716   0.42351   0.00000  Uiso   1.00
N275   N     0.22163   0.16120   0.04531   0.00000  Uiso   1.00
N276   N     0.96419   0.74735   0.05264   0.00000  Uiso   1.00
C277   C     0.68942   0.10476   0.31226   0.00000  Uiso   1.00
C278   C     0.65551   0.08144   0.24688   0.00000  Uiso   1.00
C279   C     0.68289   0.09765   0.18480   0.00000  Uiso   1.00
C280   C     0.64386   0.07130   0.13110   0.00000  Uiso   1.00
C281   C     0.60097   0.04132   0.02834   0.00000  Uiso   1.00
C282   C     0.70143   0.03347   0.35111   0.00000  Uiso   1.00
C283   C     0.76742   0.00935   0.37667   0.00000  Uiso   1.00
C284   C     0.76705   0.94261   0.41071   0.00000  Uiso   1.00
C285   C     0.79544   0.83817   0.46981   0.00000  Uiso   1.00
C286   C     0.63048   0.14752   0.34908   0.00000  Uiso   1.00
C287   C     0.63681   0.21930   0.37295   0.00000  Uiso   1.00
C288   C     0.57671   0.24859   0.40530   0.00000  Uiso   1.00
C289   C     0.49494   0.32125   0.46125   0.00000  Uiso   1.00
C290   C     0.57143   0.02913   0.32728   0.00000  Uiso   1.00
C291   C     0.59142   0.04036   0.25504   0.00000  Uiso   1.00
C292   C     0.55234   0.01398   0.20142   0.00000  Uiso   1.00
C293   C     0.57966   0.03015   0.13927   0.00000  Uiso   1.00
C294   C     0.63735   0.99239   0.35927   0.00000  Uiso   1.00
C295   C     0.63688   0.92568   0.39328   0.00000  Uiso   1.00
C296   C     0.70285   0.90146   0.41888   0.00000  Uiso   1.00
C297   C     0.56639   0.10645   0.35724   0.00000  Uiso   1.00
C298   C     0.50627   0.13563   0.38956   0.00000  Uiso   1.00
C299   C     0.51251   0.20744   0.41347   0.00000  Uiso   1.00
H300   H     0.73932   0.13673   0.30591   0.00000  Uiso   1.00
H301   H     0.73249   0.12944   0.17851   0.00000  Uiso   1.00
H302   H     0.81700   0.04115   0.37035   0.00000  Uiso   1.00
H303   H     0.68642   0.25107   0.36663   0.00000  Uiso   1.00
H304   H     0.69667   0.10321   0.04086   0.00000  Uiso   1.00
H305   H     0.87487   0.91707   0.44539   0.00000  Uiso   1.00
H306   H     0.59950   0.35973   0.43754   0.00000  Uiso   1.00
H307   H     0.52154   0.99715   0.33363   0.00000  Uiso   1.00
H308   H     0.50275   0.98219   0.20774   0.00000  Uiso   1.00
H309   H     0.58727   0.89390   0.39959   0.00000  Uiso   1.00
H310   H     0.45668   0.10383   0.39586   0.00000  Uiso   1.00
H311   H     0.51021   0.98370   0.06458   0.00000  Uiso   1.00
H312   H     0.68841   0.79755   0.46912   0.00000  Uiso   1.00
H313   H     0.41304   0.24022   0.46127   0.00000  Uiso   1.00
O314   O     0.59502   0.03612   0.96941   0.00000  Uiso   1.00
O315   O     0.82881   0.79191   0.50015   0.00000  Uiso   1.00
O316   O     0.46754   0.37267   0.48985   0.00000  Uiso   1.00
N317   N     0.65535   0.07715   0.06372   0.00000  Uiso   1.00
N318   N     0.82196   0.90311   0.44192   0.00000  Uiso   1.00
N319   N     0.56453   0.31696   0.43460   0.00000  Uiso   1.00
N320   N     0.55502   0.01284   0.07649   0.00000  Uiso   1.00
N321   N     0.72163   0.83880   0.45469   0.00000  Uiso   1.00
N322   N     0.46419   0.25265   0.44736   0.00000  Uiso   1.00
C323   C     0.81058   0.39524   0.31226   0.00000  Uiso   1.00
C324   C     0.84449   0.41856   0.24688   0.00000  Uiso   1.00
C325   C     0.81711   0.40235   0.18480   0.00000  Uiso   1.00
C326   C     0.85614   0.42870   0.13110   0.00000  Uiso   1.00
C327   C     0.89903   0.45868   0.02834   0.00000  Uiso   1.00
C328   C     0.79857   0.46653   0.35111   0.00000  Uiso   1.00
C329   C     0.73258   0.49065   0.37667   0.00000  Uiso   1.00
C330   C     0.73295   0.55739   0.41071   0.00000  Uiso   1.00
C331   C     0.70456   0.66183   0.46981   0.00000  Uiso   1.00
C332   C     0.86952   0.35248   0.34908   0.00000  Uiso   1.00
C333   C     0.86319   0.28070   0.37295   0.00000  Uiso   1.00
C334   C     0.92329   0.25141   0.40530   0.00000  Uiso   1.00
C335   C     0.00506   0.17875   0.46125   0.00000  Uiso   1.00
C336   C     0.92857   0.47087   0.32728   0.00000  Uiso   1.00
C337   C     0.90858   0.45964   0.25504   0.00000  Uiso   1.00
C338   C     0.94766   0.48602   0.20142   0.00000  Uiso   1.00
C339   C     0.92034   0.46985   0.13927   0.00000  Uiso   1.00
C340   C     0.86265   0.50761   0.35927   0.00000  Uiso   1.00
C341   C     0.86312   0.57432   0.39328   0.00000  Uiso   1.00
C342   C     0.79715   0.59854   0.41888   0.00000  Uiso   1.00
C343   C     0.93361   0.39355   0.35724   0.00000  Uiso   1.00
C344   C     0.99373   0.36437   0.38956   0.00000  Uiso   1.00
C345   C     0.98749   0.29256   0.41347   0.00000  Uiso   1.00
H346   H     0.76068   0.36327   0.30591   0.00000  Uiso   1.00
H347   H     0.76751   0.37056   0.17851   0.00000  Uiso   1.00
H348   H     0.68300   0.45885   0.37035   0.00000  Uiso   1.00
H349   H     0.81358   0.24893   0.36663   0.00000  Uiso   1.00
H350   H     0.80333   0.39679   0.04086   0.00000  Uiso   1.00
H351   H     0.62513   0.58293   0.44539   0.00000  Uiso   1.00
H352   H     0.90050   0.14027   0.43754   0.00000  Uiso   1.00
H353   H     0.97846   0.50285   0.33363   0.00000  Uiso   1.00
H354   H     0.99725   0.51781   0.20774   0.00000  Uiso   1.00
H355   H     0.91273   0.60610   0.39959   0.00000  Uiso   1.00
H356   H     0.04332   0.39617   0.39586   0.00000  Uiso   1.00
H357   H     0.98979   0.51630   0.06458   0.00000  Uiso   1.00
H358   H     0.81159   0.70245   0.46912   0.00000  Uiso   1.00
H359   H     0.08696   0.25978   0.46127   0.00000  Uiso   1.00
O360   O     0.90498   0.46388   0.96941   0.00000  Uiso   1.00
O361   O     0.67119   0.70809   0.50015   0.00000  Uiso   1.00
O362   O     0.03246   0.12733   0.48985   0.00000  Uiso   1.00
N363   N     0.84465   0.42285   0.06372   0.00000  Uiso   1.00
N364   N     0.67804   0.59689   0.44192   0.00000  Uiso   1.00
N365   N     0.93547   0.18304   0.43460   0.00000  Uiso   1.00
N366   N     0.94498   0.48716   0.07649   0.00000  Uiso   1.00
N367   N     0.77837   0.66120   0.45469   0.00000  Uiso   1.00
N368   N     0.03581   0.24735   0.44736   0.00000  Uiso   1.00
