data_job_05187
_audit_creation_date              2018-12-19
_audit_creation_method            'Materials Studio'
_symmetry_space_group_name_H-M    'P1'
_symmetry_Int_Tables_number       1
_symmetry_cell_setting            triclinic
loop_
_symmetry_equiv_pos_as_xyz
  x,y,z
_cell_length_a                    16.8407
_cell_length_b                    8.5495
_cell_length_c                    15.0087
_cell_angle_alpha                 90.0000
_cell_angle_beta                  90.0000
_cell_angle_gamma                 90.0000
loop_
_atom_site_label
_atom_site_type_symbol
_atom_site_fract_x
_atom_site_fract_y
_atom_site_fract_z
_atom_site_U_iso_or_equiv
_atom_site_adp_type
_atom_site_occupancy
C1     C     0.96172   0.65230   0.22118   0.00000  Uiso   1.00
C2     C     0.95725   0.49456   0.26834   0.00000  Uiso   1.00
C3     C     0.91995   0.46593   0.34916   0.00000  Uiso   1.00
C4     C     0.92248   0.31364   0.38115   0.00000  Uiso   1.00
C5     C     0.90972   0.08687   0.46158   0.00000  Uiso   1.00
C6     C     0.04981   0.68526   0.20701   0.00000  Uiso   1.00
C7     C     0.09032   0.81698   0.23624   0.00000  Uiso   1.00
C8     C     0.17078   0.82522   0.21659   0.00000  Uiso   1.00
C9     C     0.30170   0.89457   0.20174   0.00000  Uiso   1.00
C10    C     0.92667   0.62664   0.12866   0.00000  Uiso   1.00
C11    C     0.86364   0.70909   0.09200   0.00000  Uiso   1.00
C12    C     0.84043   0.66801   0.00637   0.00000  Uiso   1.00
C13    C     0.78015   0.64633   0.86987   0.00000  Uiso   1.00
C14    C     0.03257   0.43276   0.13429   0.00000  Uiso   1.00
C15    C     0.99574   0.37532   0.22115   0.00000  Uiso   1.00
C16    C     0.99833   0.22303   0.25302   0.00000  Uiso   1.00
C17    C     0.96103   0.19418   0.33387   0.00000  Uiso   1.00
C18    C     0.08830   0.56602   0.15981   0.00000  Uiso   1.00
C19    C     0.16871   0.57408   0.14011   0.00000  Uiso   1.00
C20    C     0.20933   0.70576   0.16931   0.00000  Uiso   1.00
C21    C     0.96515   0.50739   0.08146   0.00000  Uiso   1.00
C22    C     0.94203   0.46618   0.99587   0.00000  Uiso   1.00
C23    C     0.87898   0.54855   0.95909   0.00000  Uiso   1.00
H24    H     0.93177   0.74515   0.25793   0.00000  Uiso   1.00
H25    H     0.89018   0.55825   0.38567   0.00000  Uiso   1.00
H26    H     0.06053   0.90925   0.27276   0.00000  Uiso   1.00
H27    H     0.83388   0.80136   0.12855   0.00000  Uiso   1.00
H28    H     0.86106   0.29846   0.50649   0.00000  Uiso   1.00
H29    H     0.22024   0.03858   0.26840   0.00000  Uiso   1.00
H30    H     0.74232   0.81111   0.96429   0.00000  Uiso   1.00
H31    H     0.06254   0.33992   0.09754   0.00000  Uiso   1.00
H32    H     0.02812   0.13077   0.21648   0.00000  Uiso   1.00
H33    H     0.19847   0.48178   0.10358   0.00000  Uiso   1.00
H34    H     0.97182   0.37389   0.95936   0.00000  Uiso   1.00
H35    H     0.97302   0.95151   0.36918   0.00000  Uiso   1.00
H36    H     0.33220   0.69164   0.13108   0.00000  Uiso   1.00
H37    H     0.85428   0.46415   0.82697   0.00000  Uiso   1.00
O38    O     0.89206   0.99473   0.51899   0.00000  Uiso   1.00
O39    O     0.36329   0.96576   0.20660   0.00000  Uiso   1.00
O40    O     0.73626   0.66730   0.80762   0.00000  Uiso   1.00
N41    N     0.89212   0.24550   0.45785   0.00000  Uiso   1.00
N42    N     0.22794   0.93746   0.23525   0.00000  Uiso   1.00
N43    N     0.78113   0.72482   0.95093   0.00000  Uiso   1.00
N44    N     0.95236   0.05881   0.38396   0.00000  Uiso   1.00
N45    N     0.28818   0.75077   0.16136   0.00000  Uiso   1.00
N46    N     0.84137   0.53812   0.87704   0.00000  Uiso   1.00
C47    C     0.03828   0.34770   0.72118   0.00000  Uiso   1.00
C48    C     0.04275   0.50544   0.76834   0.00000  Uiso   1.00
C49    C     0.08005   0.53407   0.84916   0.00000  Uiso   1.00
C50    C     0.07752   0.68636   0.88115   0.00000  Uiso   1.00
C51    C     0.09028   0.91313   0.96158   0.00000  Uiso   1.00
C52    C     0.95019   0.31474   0.70701   0.00000  Uiso   1.00
C53    C     0.90968   0.18302   0.73624   0.00000  Uiso   1.00
C54    C     0.82922   0.17478   0.71659   0.00000  Uiso   1.00
C55    C     0.69830   0.10543   0.70174   0.00000  Uiso   1.00
C56    C     0.07333   0.37336   0.62866   0.00000  Uiso   1.00
C57    C     0.13636   0.29091   0.59200   0.00000  Uiso   1.00
C58    C     0.15957   0.33199   0.50637   0.00000  Uiso   1.00
C59    C     0.21985   0.35367   0.36987   0.00000  Uiso   1.00
C60    C     0.96743   0.56724   0.63429   0.00000  Uiso   1.00
C61    C     0.00426   0.62468   0.72115   0.00000  Uiso   1.00
C62    C     0.00167   0.77697   0.75302   0.00000  Uiso   1.00
C63    C     0.03897   0.80582   0.83387   0.00000  Uiso   1.00
C64    C     0.91170   0.43398   0.65981   0.00000  Uiso   1.00
C65    C     0.83129   0.42592   0.64011   0.00000  Uiso   1.00
C66    C     0.79067   0.29424   0.66931   0.00000  Uiso   1.00
C67    C     0.03485   0.49261   0.58146   0.00000  Uiso   1.00
C68    C     0.05797   0.53382   0.49587   0.00000  Uiso   1.00
C69    C     0.12102   0.45145   0.45909   0.00000  Uiso   1.00
H70    H     0.06823   0.25485   0.75793   0.00000  Uiso   1.00
H71    H     0.10982   0.44175   0.88567   0.00000  Uiso   1.00
H72    H     0.93947   0.09075   0.77276   0.00000  Uiso   1.00
H73    H     0.16612   0.19864   0.62855   0.00000  Uiso   1.00
H74    H     0.13894   0.70154   0.00649   0.00000  Uiso   1.00
H75    H     0.77976   0.96142   0.76840   0.00000  Uiso   1.00
H76    H     0.25768   0.18889   0.46429   0.00000  Uiso   1.00
H77    H     0.93746   0.66008   0.59754   0.00000  Uiso   1.00
H78    H     0.97188   0.86923   0.71648   0.00000  Uiso   1.00
H79    H     0.80153   0.51822   0.60358   0.00000  Uiso   1.00
H80    H     0.02818   0.62611   0.45936   0.00000  Uiso   1.00
H81    H     0.02698   0.04849   0.86918   0.00000  Uiso   1.00
H82    H     0.66780   0.30836   0.63108   0.00000  Uiso   1.00
H83    H     0.14572   0.53585   0.32697   0.00000  Uiso   1.00
O84    O     0.10794   0.00527   0.01899   0.00000  Uiso   1.00
O85    O     0.63671   0.03424   0.70660   0.00000  Uiso   1.00
O86    O     0.26374   0.33270   0.30762   0.00000  Uiso   1.00
N87    N     0.10788   0.75450   0.95785   0.00000  Uiso   1.00
N88    N     0.77206   0.06254   0.73525   0.00000  Uiso   1.00
N89    N     0.21887   0.27518   0.45093   0.00000  Uiso   1.00
N90    N     0.04764   0.94119   0.88396   0.00000  Uiso   1.00
N91    N     0.71182   0.24923   0.66136   0.00000  Uiso   1.00
N92    N     0.15863   0.46188   0.37704   0.00000  Uiso   1.00
C93    C     0.46172   0.34770   0.22118   0.00000  Uiso   1.00
C94    C     0.45725   0.50544   0.26834   0.00000  Uiso   1.00
C95    C     0.41995   0.53407   0.34916   0.00000  Uiso   1.00
C96    C     0.42248   0.68636   0.38115   0.00000  Uiso   1.00
C97    C     0.40972   0.91313   0.46158   0.00000  Uiso   1.00
C98    C     0.54981   0.31474   0.20701   0.00000  Uiso   1.00
C99    C     0.59032   0.18302   0.23624   0.00000  Uiso   1.00
C100   C     0.67078   0.17478   0.21659   0.00000  Uiso   1.00
C101   C     0.80170   0.10543   0.20174   0.00000  Uiso   1.00
C102   C     0.42667   0.37336   0.12866   0.00000  Uiso   1.00
C103   C     0.36364   0.29091   0.09200   0.00000  Uiso   1.00
C104   C     0.34043   0.33199   0.00637   0.00000  Uiso   1.00
C105   C     0.28015   0.35367   0.86987   0.00000  Uiso   1.00
C106   C     0.53257   0.56724   0.13429   0.00000  Uiso   1.00
C107   C     0.49574   0.62468   0.22115   0.00000  Uiso   1.00
C108   C     0.49833   0.77697   0.25302   0.00000  Uiso   1.00
C109   C     0.46103   0.80582   0.33387   0.00000  Uiso   1.00
C110   C     0.58830   0.43398   0.15981   0.00000  Uiso   1.00
C111   C     0.66871   0.42592   0.14011   0.00000  Uiso   1.00
C112   C     0.70933   0.29424   0.16931   0.00000  Uiso   1.00
C113   C     0.46515   0.49261   0.08146   0.00000  Uiso   1.00
C114   C     0.44203   0.53382   0.99587   0.00000  Uiso   1.00
C115   C     0.37898   0.45145   0.95909   0.00000  Uiso   1.00
H116   H     0.43177   0.25485   0.25793   0.00000  Uiso   1.00
H117   H     0.39018   0.44175   0.38567   0.00000  Uiso   1.00
H118   H     0.56053   0.09075   0.27276   0.00000  Uiso   1.00
H119   H     0.33388   0.19864   0.12855   0.00000  Uiso   1.00
H120   H     0.36106   0.70154   0.50649   0.00000  Uiso   1.00
H121   H     0.72024   0.96142   0.26840   0.00000  Uiso   1.00
H122   H     0.24232   0.18889   0.96429   0.00000  Uiso   1.00
H123   H     0.56254   0.66008   0.09754   0.00000  Uiso   1.00
H124   H     0.52812   0.86923   0.21648   0.00000  Uiso   1.00
H125   H     0.69847   0.51822   0.10358   0.00000  Uiso   1.00
H126   H     0.47182   0.62611   0.95936   0.00000  Uiso   1.00
H127   H     0.47302   0.04849   0.36918   0.00000  Uiso   1.00
H128   H     0.83220   0.30836   0.13108   0.00000  Uiso   1.00
H129   H     0.35428   0.53585   0.82697   0.00000  Uiso   1.00
O130   O     0.39206   0.00527   0.51899   0.00000  Uiso   1.00
O131   O     0.86329   0.03424   0.20660   0.00000  Uiso   1.00
O132   O     0.23626   0.33270   0.80762   0.00000  Uiso   1.00
N133   N     0.39212   0.75450   0.45785   0.00000  Uiso   1.00
N134   N     0.72794   0.06254   0.23525   0.00000  Uiso   1.00
N135   N     0.28113   0.27518   0.95093   0.00000  Uiso   1.00
N136   N     0.45236   0.94119   0.38396   0.00000  Uiso   1.00
N137   N     0.78818   0.24923   0.16136   0.00000  Uiso   1.00
N138   N     0.34137   0.46188   0.87704   0.00000  Uiso   1.00
C139   C     0.53828   0.65230   0.72118   0.00000  Uiso   1.00
C140   C     0.54275   0.49456   0.76834   0.00000  Uiso   1.00
C141   C     0.58005   0.46593   0.84916   0.00000  Uiso   1.00
C142   C     0.57752   0.31364   0.88115   0.00000  Uiso   1.00
C143   C     0.59028   0.08687   0.96158   0.00000  Uiso   1.00
C144   C     0.45019   0.68526   0.70701   0.00000  Uiso   1.00
C145   C     0.40968   0.81698   0.73624   0.00000  Uiso   1.00
C146   C     0.32922   0.82522   0.71659   0.00000  Uiso   1.00
C147   C     0.19830   0.89457   0.70174   0.00000  Uiso   1.00
C148   C     0.57333   0.62664   0.62866   0.00000  Uiso   1.00
C149   C     0.63636   0.70909   0.59200   0.00000  Uiso   1.00
C150   C     0.65957   0.66801   0.50637   0.00000  Uiso   1.00
C151   C     0.71985   0.64633   0.36987   0.00000  Uiso   1.00
C152   C     0.46743   0.43276   0.63429   0.00000  Uiso   1.00
C153   C     0.50426   0.37532   0.72115   0.00000  Uiso   1.00
C154   C     0.50167   0.22303   0.75302   0.00000  Uiso   1.00
C155   C     0.53897   0.19418   0.83387   0.00000  Uiso   1.00
C156   C     0.41170   0.56602   0.65981   0.00000  Uiso   1.00
C157   C     0.33129   0.57408   0.64011   0.00000  Uiso   1.00
C158   C     0.29067   0.70576   0.66931   0.00000  Uiso   1.00
C159   C     0.53485   0.50739   0.58146   0.00000  Uiso   1.00
C160   C     0.55797   0.46618   0.49587   0.00000  Uiso   1.00
C161   C     0.62102   0.54855   0.45909   0.00000  Uiso   1.00
H162   H     0.56823   0.74515   0.75793   0.00000  Uiso   1.00
H163   H     0.60982   0.55825   0.88567   0.00000  Uiso   1.00
H164   H     0.43947   0.90925   0.77276   0.00000  Uiso   1.00
H165   H     0.66612   0.80136   0.62855   0.00000  Uiso   1.00
H166   H     0.63894   0.29846   0.00649   0.00000  Uiso   1.00
H167   H     0.27976   0.03858   0.76840   0.00000  Uiso   1.00
H168   H     0.75768   0.81111   0.46429   0.00000  Uiso   1.00
H169   H     0.43746   0.33992   0.59754   0.00000  Uiso   1.00
H170   H     0.47188   0.13077   0.71648   0.00000  Uiso   1.00
H171   H     0.30153   0.48178   0.60358   0.00000  Uiso   1.00
H172   H     0.52818   0.37389   0.45936   0.00000  Uiso   1.00
H173   H     0.52698   0.95151   0.86918   0.00000  Uiso   1.00
H174   H     0.16780   0.69164   0.63108   0.00000  Uiso   1.00
H175   H     0.64572   0.46415   0.32697   0.00000  Uiso   1.00
O176   O     0.60794   0.99473   0.01899   0.00000  Uiso   1.00
O177   O     0.13671   0.96576   0.70660   0.00000  Uiso   1.00
O178   O     0.76374   0.66730   0.30762   0.00000  Uiso   1.00
N179   N     0.60788   0.24550   0.95785   0.00000  Uiso   1.00
N180   N     0.27206   0.93746   0.73525   0.00000  Uiso   1.00
N181   N     0.71887   0.72482   0.45093   0.00000  Uiso   1.00
N182   N     0.54764   0.05881   0.88396   0.00000  Uiso   1.00
N183   N     0.21182   0.75077   0.66136   0.00000  Uiso   1.00
N184   N     0.65863   0.53812   0.37704   0.00000  Uiso   1.00
