data_job_02027
_audit_creation_date              2018-12-19
_audit_creation_method            'Materials Studio'
_symmetry_space_group_name_H-M    'P1'
_symmetry_Int_Tables_number       1
_symmetry_cell_setting            triclinic
loop_
_symmetry_equiv_pos_as_xyz
  x,y,z
_cell_length_a                    20.8990
_cell_length_b                    13.8949
_cell_length_c                    23.6957
_cell_angle_alpha                 90.0000
_cell_angle_beta                  75.4920
_cell_angle_gamma                 90.0000
loop_
_atom_site_label
_atom_site_type_symbol
_atom_site_fract_x
_atom_site_fract_y
_atom_site_fract_z
_atom_site_U_iso_or_equiv
_atom_site_adp_type
_atom_site_occupancy
C1     C     0.58987   0.81253   0.56845   0.00000  Uiso   1.00
C2     C     0.60359   0.74104   0.61282   0.00000  Uiso   1.00
C3     C     0.66247   0.73258   0.62943   0.00000  Uiso   1.00
C4     C     0.66515   0.66269   0.67065   0.00000  Uiso   1.00
C5     C     0.69472   0.56066   0.73592   0.00000  Uiso   1.00
C6     C     0.56858   0.75257   0.52241   0.00000  Uiso   1.00
C7     C     0.59803   0.75381   0.46301   0.00000  Uiso   1.00
C8     C     0.57123   0.69364   0.42813   0.00000  Uiso   1.00
C9     C     0.54642   0.60955   0.35303   0.00000  Uiso   1.00
C10    C     0.52894   0.86925   0.60004   0.00000  Uiso   1.00
C11    C     0.52505   0.96861   0.60589   0.00000  Uiso   1.00
C12    C     0.46487   0.00668   0.63636   0.00000  Uiso   1.00
C13    C     0.37852   0.10377   0.68179   0.00000  Uiso   1.00
C14    C     0.48991   0.70348   0.61212   0.00000  Uiso   1.00
C15    C     0.54930   0.68181   0.63653   0.00000  Uiso   1.00
C16    C     0.55188   0.61192   0.67775   0.00000  Uiso   1.00
C17    C     0.61076   0.60336   0.69442   0.00000  Uiso   1.00
C18    C     0.51429   0.69334   0.54613   0.00000  Uiso   1.00
C19    C     0.48744   0.63315   0.51132   0.00000  Uiso   1.00
C20    C     0.51684   0.63429   0.45189   0.00000  Uiso   1.00
C21    C     0.47465   0.81002   0.62376   0.00000  Uiso   1.00
C22    C     0.41446   0.84795   0.65421   0.00000  Uiso   1.00
C23    C     0.41048   0.94734   0.66012   0.00000  Uiso   1.00
H24    H     0.63214   0.85865   0.54997   0.00000  Uiso   1.00
H25    H     0.70448   0.77843   0.61106   0.00000  Uiso   1.00
H26    H     0.64004   0.79966   0.44466   0.00000  Uiso   1.00
H27    H     0.56707   0.01442   0.58753   0.00000  Uiso   1.00
H28    H     0.76075   0.66334   0.68922   0.00000  Uiso   1.00
H29    H     0.62486   0.70814   0.33837   0.00000  Uiso   1.00
H30    H     0.47100   0.16101   0.63963   0.00000  Uiso   1.00
H31    H     0.44764   0.65736   0.63058   0.00000  Uiso   1.00
H32    H     0.50986   0.56609   0.69609   0.00000  Uiso   1.00
H33    H     0.44542   0.58733   0.52970   0.00000  Uiso   1.00
H34    H     0.37246   0.80209   0.67256   0.00000  Uiso   1.00
H35    H     0.60279   0.49100   0.75824   0.00000  Uiso   1.00
H36    H     0.46690   0.53580   0.40738   0.00000  Uiso   1.00
H37    H     0.31304   0.98867   0.70865   0.00000  Uiso   1.00
O38    O     0.72603   0.52074   0.76536   0.00000  Uiso   1.00
O39    O     0.54775   0.57953   0.30505   0.00000  Uiso   1.00
O40    O     0.34589   0.17368   0.70030   0.00000  Uiso   1.00
N41    N     0.71503   0.63532   0.69649   0.00000  Uiso   1.00
N42    N     0.58799   0.67719   0.36846   0.00000  Uiso   1.00
N43    N     0.44414   0.10059   0.65010   0.00000  Uiso   1.00
N44    N     0.63003   0.54258   0.73362   0.00000  Uiso   1.00
N45    N     0.50299   0.58446   0.40560   0.00000  Uiso   1.00
N46    N     0.35914   0.00785   0.68724   0.00000  Uiso   1.00
C47    C     0.08987   0.31253   0.56845   0.00000  Uiso   1.00
C48    C     0.10359   0.24104   0.61282   0.00000  Uiso   1.00
C49    C     0.16247   0.23258   0.62943   0.00000  Uiso   1.00
C50    C     0.16515   0.16269   0.67065   0.00000  Uiso   1.00
C51    C     0.19472   0.06066   0.73592   0.00000  Uiso   1.00
C52    C     0.06858   0.25257   0.52241   0.00000  Uiso   1.00
C53    C     0.09803   0.25381   0.46301   0.00000  Uiso   1.00
C54    C     0.07123   0.19364   0.42813   0.00000  Uiso   1.00
C55    C     0.04642   0.10955   0.35303   0.00000  Uiso   1.00
C56    C     0.02894   0.36925   0.60004   0.00000  Uiso   1.00
C57    C     0.02505   0.46861   0.60589   0.00000  Uiso   1.00
C58    C     0.96487   0.50668   0.63636   0.00000  Uiso   1.00
C59    C     0.87852   0.60377   0.68179   0.00000  Uiso   1.00
C60    C     0.98991   0.20348   0.61212   0.00000  Uiso   1.00
C61    C     0.04930   0.18181   0.63653   0.00000  Uiso   1.00
C62    C     0.05188   0.11192   0.67775   0.00000  Uiso   1.00
C63    C     0.11076   0.10336   0.69442   0.00000  Uiso   1.00
C64    C     0.01429   0.19334   0.54613   0.00000  Uiso   1.00
C65    C     0.98744   0.13315   0.51132   0.00000  Uiso   1.00
C66    C     0.01684   0.13429   0.45189   0.00000  Uiso   1.00
C67    C     0.97465   0.31002   0.62376   0.00000  Uiso   1.00
C68    C     0.91446   0.34795   0.65421   0.00000  Uiso   1.00
C69    C     0.91048   0.44734   0.66012   0.00000  Uiso   1.00
H70    H     0.13214   0.35865   0.54997   0.00000  Uiso   1.00
H71    H     0.20448   0.27843   0.61106   0.00000  Uiso   1.00
H72    H     0.14004   0.29966   0.44466   0.00000  Uiso   1.00
H73    H     0.06707   0.51442   0.58753   0.00000  Uiso   1.00
H74    H     0.26075   0.16334   0.68922   0.00000  Uiso   1.00
H75    H     0.12486   0.20814   0.33837   0.00000  Uiso   1.00
H76    H     0.97100   0.66101   0.63963   0.00000  Uiso   1.00
H77    H     0.94764   0.15736   0.63058   0.00000  Uiso   1.00
H78    H     0.00986   0.06609   0.69609   0.00000  Uiso   1.00
H79    H     0.94542   0.08733   0.52970   0.00000  Uiso   1.00
H80    H     0.87246   0.30209   0.67256   0.00000  Uiso   1.00
H81    H     0.10279   0.99100   0.75824   0.00000  Uiso   1.00
H82    H     0.96690   0.03580   0.40738   0.00000  Uiso   1.00
H83    H     0.81304   0.48867   0.70865   0.00000  Uiso   1.00
O84    O     0.22603   0.02074   0.76536   0.00000  Uiso   1.00
O85    O     0.04775   0.07953   0.30505   0.00000  Uiso   1.00
O86    O     0.84589   0.67368   0.70030   0.00000  Uiso   1.00
N87    N     0.21503   0.13532   0.69649   0.00000  Uiso   1.00
N88    N     0.08799   0.17719   0.36846   0.00000  Uiso   1.00
N89    N     0.94414   0.60059   0.65010   0.00000  Uiso   1.00
N90    N     0.13003   0.04258   0.73362   0.00000  Uiso   1.00
N91    N     0.00299   0.08446   0.40560   0.00000  Uiso   1.00
N92    N     0.85914   0.50785   0.68724   0.00000  Uiso   1.00
C93    C     0.41013   0.81253   0.93155   0.00000  Uiso   1.00
C94    C     0.39641   0.74104   0.88718   0.00000  Uiso   1.00
C95    C     0.33753   0.73258   0.87057   0.00000  Uiso   1.00
C96    C     0.33485   0.66269   0.82935   0.00000  Uiso   1.00
C97    C     0.30528   0.56066   0.76408   0.00000  Uiso   1.00
C98    C     0.43142   0.75257   0.97759   0.00000  Uiso   1.00
C99    C     0.40197   0.75381   0.03699   0.00000  Uiso   1.00
C100   C     0.42877   0.69364   0.07187   0.00000  Uiso   1.00
C101   C     0.45358   0.60955   0.14697   0.00000  Uiso   1.00
C102   C     0.47106   0.86925   0.89996   0.00000  Uiso   1.00
C103   C     0.47495   0.96861   0.89411   0.00000  Uiso   1.00
C104   C     0.53513   0.00668   0.86364   0.00000  Uiso   1.00
C105   C     0.62148   0.10377   0.81821   0.00000  Uiso   1.00
C106   C     0.51009   0.70348   0.88788   0.00000  Uiso   1.00
C107   C     0.45070   0.68181   0.86347   0.00000  Uiso   1.00
C108   C     0.44812   0.61192   0.82225   0.00000  Uiso   1.00
C109   C     0.38924   0.60336   0.80558   0.00000  Uiso   1.00
C110   C     0.48571   0.69334   0.95387   0.00000  Uiso   1.00
C111   C     0.51256   0.63315   0.98868   0.00000  Uiso   1.00
C112   C     0.48316   0.63429   0.04811   0.00000  Uiso   1.00
C113   C     0.52535   0.81002   0.87624   0.00000  Uiso   1.00
C114   C     0.58554   0.84795   0.84579   0.00000  Uiso   1.00
C115   C     0.58952   0.94734   0.83988   0.00000  Uiso   1.00
H116   H     0.36786   0.85865   0.95003   0.00000  Uiso   1.00
H117   H     0.29552   0.77843   0.88894   0.00000  Uiso   1.00
H118   H     0.35996   0.79966   0.05534   0.00000  Uiso   1.00
H119   H     0.43293   0.01442   0.91247   0.00000  Uiso   1.00
H120   H     0.23925   0.66334   0.81078   0.00000  Uiso   1.00
H121   H     0.37514   0.70814   0.16163   0.00000  Uiso   1.00
H122   H     0.52900   0.16101   0.86037   0.00000  Uiso   1.00
H123   H     0.55236   0.65736   0.86942   0.00000  Uiso   1.00
H124   H     0.49014   0.56609   0.80391   0.00000  Uiso   1.00
H125   H     0.55458   0.58733   0.97030   0.00000  Uiso   1.00
H126   H     0.62754   0.80209   0.82744   0.00000  Uiso   1.00
H127   H     0.39721   0.49100   0.74176   0.00000  Uiso   1.00
H128   H     0.53310   0.53580   0.09262   0.00000  Uiso   1.00
H129   H     0.68696   0.98867   0.79135   0.00000  Uiso   1.00
O130   O     0.27397   0.52074   0.73464   0.00000  Uiso   1.00
O131   O     0.45225   0.57953   0.19495   0.00000  Uiso   1.00
O132   O     0.65411   0.17368   0.79970   0.00000  Uiso   1.00
N133   N     0.28497   0.63532   0.80351   0.00000  Uiso   1.00
N134   N     0.41201   0.67719   0.13154   0.00000  Uiso   1.00
N135   N     0.55586   0.10059   0.84990   0.00000  Uiso   1.00
N136   N     0.36997   0.54258   0.76638   0.00000  Uiso   1.00
N137   N     0.49701   0.58446   0.09440   0.00000  Uiso   1.00
N138   N     0.64086   0.00785   0.81276   0.00000  Uiso   1.00
C139   C     0.91013   0.31253   0.93155   0.00000  Uiso   1.00
C140   C     0.89641   0.24104   0.88718   0.00000  Uiso   1.00
C141   C     0.83753   0.23258   0.87057   0.00000  Uiso   1.00
C142   C     0.83485   0.16269   0.82935   0.00000  Uiso   1.00
C143   C     0.80528   0.06066   0.76408   0.00000  Uiso   1.00
C144   C     0.93142   0.25257   0.97759   0.00000  Uiso   1.00
C145   C     0.90197   0.25381   0.03699   0.00000  Uiso   1.00
C146   C     0.92877   0.19364   0.07187   0.00000  Uiso   1.00
C147   C     0.95358   0.10955   0.14697   0.00000  Uiso   1.00
C148   C     0.97106   0.36925   0.89996   0.00000  Uiso   1.00
C149   C     0.97495   0.46861   0.89411   0.00000  Uiso   1.00
C150   C     0.03513   0.50668   0.86364   0.00000  Uiso   1.00
C151   C     0.12148   0.60377   0.81821   0.00000  Uiso   1.00
C152   C     0.01009   0.20348   0.88788   0.00000  Uiso   1.00
C153   C     0.95070   0.18181   0.86347   0.00000  Uiso   1.00
C154   C     0.94812   0.11192   0.82225   0.00000  Uiso   1.00
C155   C     0.88924   0.10336   0.80558   0.00000  Uiso   1.00
C156   C     0.98571   0.19334   0.95387   0.00000  Uiso   1.00
C157   C     0.01256   0.13315   0.98868   0.00000  Uiso   1.00
C158   C     0.98316   0.13429   0.04811   0.00000  Uiso   1.00
C159   C     0.02535   0.31002   0.87624   0.00000  Uiso   1.00
C160   C     0.08554   0.34795   0.84579   0.00000  Uiso   1.00
C161   C     0.08952   0.44734   0.83988   0.00000  Uiso   1.00
H162   H     0.86786   0.35865   0.95003   0.00000  Uiso   1.00
H163   H     0.79552   0.27843   0.88894   0.00000  Uiso   1.00
H164   H     0.85996   0.29966   0.05534   0.00000  Uiso   1.00
H165   H     0.93293   0.51442   0.91247   0.00000  Uiso   1.00
H166   H     0.73925   0.16334   0.81078   0.00000  Uiso   1.00
H167   H     0.87514   0.20814   0.16163   0.00000  Uiso   1.00
H168   H     0.02900   0.66101   0.86037   0.00000  Uiso   1.00
H169   H     0.05236   0.15736   0.86942   0.00000  Uiso   1.00
H170   H     0.99014   0.06609   0.80391   0.00000  Uiso   1.00
H171   H     0.05458   0.08733   0.97030   0.00000  Uiso   1.00
H172   H     0.12754   0.30209   0.82744   0.00000  Uiso   1.00
H173   H     0.89721   0.99100   0.74176   0.00000  Uiso   1.00
H174   H     0.03310   0.03580   0.09262   0.00000  Uiso   1.00
H175   H     0.18696   0.48867   0.79135   0.00000  Uiso   1.00
O176   O     0.77397   0.02074   0.73464   0.00000  Uiso   1.00
O177   O     0.95225   0.07953   0.19495   0.00000  Uiso   1.00
O178   O     0.15411   0.67368   0.79970   0.00000  Uiso   1.00
N179   N     0.78497   0.13532   0.80351   0.00000  Uiso   1.00
N180   N     0.91201   0.17719   0.13154   0.00000  Uiso   1.00
N181   N     0.05586   0.60059   0.84990   0.00000  Uiso   1.00
N182   N     0.86997   0.04258   0.76638   0.00000  Uiso   1.00
N183   N     0.99701   0.08446   0.09440   0.00000  Uiso   1.00
N184   N     0.14086   0.50785   0.81276   0.00000  Uiso   1.00
C185   C     0.41013   0.18747   0.43155   0.00000  Uiso   1.00
C186   C     0.39641   0.25896   0.38718   0.00000  Uiso   1.00
C187   C     0.33753   0.26742   0.37057   0.00000  Uiso   1.00
C188   C     0.33485   0.33731   0.32935   0.00000  Uiso   1.00
C189   C     0.30528   0.43934   0.26408   0.00000  Uiso   1.00
C190   C     0.43142   0.24743   0.47759   0.00000  Uiso   1.00
C191   C     0.40197   0.24619   0.53699   0.00000  Uiso   1.00
C192   C     0.42877   0.30636   0.57187   0.00000  Uiso   1.00
C193   C     0.45358   0.39045   0.64697   0.00000  Uiso   1.00
C194   C     0.47106   0.13075   0.39996   0.00000  Uiso   1.00
C195   C     0.47495   0.03139   0.39411   0.00000  Uiso   1.00
C196   C     0.53513   0.99332   0.36364   0.00000  Uiso   1.00
C197   C     0.62148   0.89623   0.31821   0.00000  Uiso   1.00
C198   C     0.51009   0.29652   0.38788   0.00000  Uiso   1.00
C199   C     0.45070   0.31819   0.36347   0.00000  Uiso   1.00
C200   C     0.44812   0.38808   0.32225   0.00000  Uiso   1.00
C201   C     0.38924   0.39664   0.30558   0.00000  Uiso   1.00
C202   C     0.48571   0.30666   0.45387   0.00000  Uiso   1.00
C203   C     0.51256   0.36685   0.48868   0.00000  Uiso   1.00
C204   C     0.48316   0.36571   0.54811   0.00000  Uiso   1.00
C205   C     0.52535   0.18998   0.37624   0.00000  Uiso   1.00
C206   C     0.58554   0.15205   0.34579   0.00000  Uiso   1.00
C207   C     0.58952   0.05266   0.33988   0.00000  Uiso   1.00
H208   H     0.36786   0.14135   0.45003   0.00000  Uiso   1.00
H209   H     0.29552   0.22157   0.38894   0.00000  Uiso   1.00
H210   H     0.35996   0.20034   0.55534   0.00000  Uiso   1.00
H211   H     0.43293   0.98558   0.41247   0.00000  Uiso   1.00
H212   H     0.23925   0.33666   0.31078   0.00000  Uiso   1.00
H213   H     0.37514   0.29186   0.66163   0.00000  Uiso   1.00
H214   H     0.52900   0.83899   0.36037   0.00000  Uiso   1.00
H215   H     0.55236   0.34264   0.36942   0.00000  Uiso   1.00
H216   H     0.49014   0.43391   0.30391   0.00000  Uiso   1.00
H217   H     0.55458   0.41267   0.47030   0.00000  Uiso   1.00
H218   H     0.62754   0.19791   0.32744   0.00000  Uiso   1.00
H219   H     0.39721   0.50900   0.24176   0.00000  Uiso   1.00
H220   H     0.53310   0.46420   0.59262   0.00000  Uiso   1.00
H221   H     0.68696   0.01133   0.29135   0.00000  Uiso   1.00
O222   O     0.27397   0.47926   0.23464   0.00000  Uiso   1.00
O223   O     0.45225   0.42047   0.69495   0.00000  Uiso   1.00
O224   O     0.65411   0.82632   0.29970   0.00000  Uiso   1.00
N225   N     0.28497   0.36468   0.30351   0.00000  Uiso   1.00
N226   N     0.41201   0.32281   0.63154   0.00000  Uiso   1.00
N227   N     0.55586   0.89941   0.34990   0.00000  Uiso   1.00
N228   N     0.36997   0.45742   0.26638   0.00000  Uiso   1.00
N229   N     0.49701   0.41554   0.59440   0.00000  Uiso   1.00
N230   N     0.64086   0.99215   0.31276   0.00000  Uiso   1.00
C231   C     0.91013   0.68747   0.43155   0.00000  Uiso   1.00
C232   C     0.89641   0.75896   0.38718   0.00000  Uiso   1.00
C233   C     0.83753   0.76742   0.37057   0.00000  Uiso   1.00
C234   C     0.83485   0.83731   0.32935   0.00000  Uiso   1.00
C235   C     0.80528   0.93934   0.26408   0.00000  Uiso   1.00
C236   C     0.93142   0.74743   0.47759   0.00000  Uiso   1.00
C237   C     0.90197   0.74619   0.53699   0.00000  Uiso   1.00
C238   C     0.92877   0.80636   0.57187   0.00000  Uiso   1.00
C239   C     0.95358   0.89045   0.64697   0.00000  Uiso   1.00
C240   C     0.97106   0.63075   0.39996   0.00000  Uiso   1.00
C241   C     0.97495   0.53139   0.39411   0.00000  Uiso   1.00
C242   C     0.03513   0.49332   0.36364   0.00000  Uiso   1.00
C243   C     0.12148   0.39623   0.31821   0.00000  Uiso   1.00
C244   C     0.01009   0.79652   0.38788   0.00000  Uiso   1.00
C245   C     0.95070   0.81819   0.36347   0.00000  Uiso   1.00
C246   C     0.94812   0.88808   0.32225   0.00000  Uiso   1.00
C247   C     0.88924   0.89664   0.30558   0.00000  Uiso   1.00
C248   C     0.98571   0.80666   0.45387   0.00000  Uiso   1.00
C249   C     0.01256   0.86685   0.48868   0.00000  Uiso   1.00
C250   C     0.98316   0.86571   0.54811   0.00000  Uiso   1.00
C251   C     0.02535   0.68998   0.37624   0.00000  Uiso   1.00
C252   C     0.08554   0.65205   0.34579   0.00000  Uiso   1.00
C253   C     0.08952   0.55266   0.33988   0.00000  Uiso   1.00
H254   H     0.86786   0.64135   0.45003   0.00000  Uiso   1.00
H255   H     0.79552   0.72157   0.38894   0.00000  Uiso   1.00
H256   H     0.85996   0.70034   0.55534   0.00000  Uiso   1.00
H257   H     0.93293   0.48558   0.41247   0.00000  Uiso   1.00
H258   H     0.73925   0.83666   0.31078   0.00000  Uiso   1.00
H259   H     0.87514   0.79186   0.66163   0.00000  Uiso   1.00
H260   H     0.02900   0.33899   0.36037   0.00000  Uiso   1.00
H261   H     0.05236   0.84264   0.36942   0.00000  Uiso   1.00
H262   H     0.99014   0.93391   0.30391   0.00000  Uiso   1.00
H263   H     0.05458   0.91267   0.47030   0.00000  Uiso   1.00
H264   H     0.12754   0.69791   0.32744   0.00000  Uiso   1.00
H265   H     0.89721   0.00900   0.24176   0.00000  Uiso   1.00
H266   H     0.03310   0.96420   0.59262   0.00000  Uiso   1.00
H267   H     0.18696   0.51133   0.29135   0.00000  Uiso   1.00
O268   O     0.77397   0.97926   0.23464   0.00000  Uiso   1.00
O269   O     0.95225   0.92047   0.69495   0.00000  Uiso   1.00
O270   O     0.15411   0.32632   0.29970   0.00000  Uiso   1.00
N271   N     0.78497   0.86468   0.30351   0.00000  Uiso   1.00
N272   N     0.91201   0.82281   0.63154   0.00000  Uiso   1.00
N273   N     0.05586   0.39941   0.34990   0.00000  Uiso   1.00
N274   N     0.86997   0.95742   0.26638   0.00000  Uiso   1.00
N275   N     0.99701   0.91554   0.59440   0.00000  Uiso   1.00
N276   N     0.14086   0.49215   0.31276   0.00000  Uiso   1.00
C277   C     0.58987   0.18747   0.06845   0.00000  Uiso   1.00
C278   C     0.60359   0.25896   0.11282   0.00000  Uiso   1.00
C279   C     0.66247   0.26742   0.12943   0.00000  Uiso   1.00
C280   C     0.66515   0.33731   0.17065   0.00000  Uiso   1.00
C281   C     0.69472   0.43934   0.23592   0.00000  Uiso   1.00
C282   C     0.56858   0.24743   0.02241   0.00000  Uiso   1.00
C283   C     0.59803   0.24619   0.96301   0.00000  Uiso   1.00
C284   C     0.57123   0.30636   0.92813   0.00000  Uiso   1.00
C285   C     0.54642   0.39045   0.85303   0.00000  Uiso   1.00
C286   C     0.52894   0.13075   0.10004   0.00000  Uiso   1.00
C287   C     0.52505   0.03139   0.10589   0.00000  Uiso   1.00
C288   C     0.46487   0.99332   0.13636   0.00000  Uiso   1.00
C289   C     0.37852   0.89623   0.18179   0.00000  Uiso   1.00
C290   C     0.48991   0.29652   0.11212   0.00000  Uiso   1.00
C291   C     0.54930   0.31819   0.13653   0.00000  Uiso   1.00
C292   C     0.55188   0.38808   0.17775   0.00000  Uiso   1.00
C293   C     0.61076   0.39664   0.19442   0.00000  Uiso   1.00
C294   C     0.51429   0.30666   0.04613   0.00000  Uiso   1.00
C295   C     0.48744   0.36685   0.01132   0.00000  Uiso   1.00
C296   C     0.51684   0.36571   0.95189   0.00000  Uiso   1.00
C297   C     0.47465   0.18998   0.12376   0.00000  Uiso   1.00
C298   C     0.41446   0.15205   0.15421   0.00000  Uiso   1.00
C299   C     0.41048   0.05266   0.16012   0.00000  Uiso   1.00
H300   H     0.63214   0.14135   0.04997   0.00000  Uiso   1.00
H301   H     0.70448   0.22157   0.11106   0.00000  Uiso   1.00
H302   H     0.64004   0.20034   0.94466   0.00000  Uiso   1.00
H303   H     0.56707   0.98558   0.08753   0.00000  Uiso   1.00
H304   H     0.76075   0.33666   0.18922   0.00000  Uiso   1.00
H305   H     0.62486   0.29186   0.83837   0.00000  Uiso   1.00
H306   H     0.47100   0.83899   0.13963   0.00000  Uiso   1.00
H307   H     0.44764   0.34264   0.13058   0.00000  Uiso   1.00
H308   H     0.50986   0.43391   0.19609   0.00000  Uiso   1.00
H309   H     0.44542   0.41267   0.02970   0.00000  Uiso   1.00
H310   H     0.37246   0.19791   0.17256   0.00000  Uiso   1.00
H311   H     0.60279   0.50900   0.25824   0.00000  Uiso   1.00
H312   H     0.46690   0.46420   0.90738   0.00000  Uiso   1.00
H313   H     0.31304   0.01133   0.20865   0.00000  Uiso   1.00
O314   O     0.72603   0.47926   0.26536   0.00000  Uiso   1.00
O315   O     0.54775   0.42047   0.80505   0.00000  Uiso   1.00
O316   O     0.34589   0.82632   0.20030   0.00000  Uiso   1.00
N317   N     0.71503   0.36468   0.19649   0.00000  Uiso   1.00
N318   N     0.58799   0.32281   0.86846   0.00000  Uiso   1.00
N319   N     0.44414   0.89941   0.15010   0.00000  Uiso   1.00
N320   N     0.63003   0.45742   0.23362   0.00000  Uiso   1.00
N321   N     0.50299   0.41554   0.90560   0.00000  Uiso   1.00
N322   N     0.35914   0.99215   0.18724   0.00000  Uiso   1.00
C323   C     0.08987   0.68747   0.06845   0.00000  Uiso   1.00
C324   C     0.10359   0.75896   0.11282   0.00000  Uiso   1.00
C325   C     0.16247   0.76742   0.12943   0.00000  Uiso   1.00
C326   C     0.16515   0.83731   0.17065   0.00000  Uiso   1.00
C327   C     0.19472   0.93934   0.23592   0.00000  Uiso   1.00
C328   C     0.06858   0.74743   0.02241   0.00000  Uiso   1.00
C329   C     0.09803   0.74619   0.96301   0.00000  Uiso   1.00
C330   C     0.07123   0.80636   0.92813   0.00000  Uiso   1.00
C331   C     0.04642   0.89045   0.85303   0.00000  Uiso   1.00
C332   C     0.02894   0.63075   0.10004   0.00000  Uiso   1.00
C333   C     0.02505   0.53139   0.10589   0.00000  Uiso   1.00
C334   C     0.96487   0.49332   0.13636   0.00000  Uiso   1.00
C335   C     0.87852   0.39623   0.18179   0.00000  Uiso   1.00
C336   C     0.98991   0.79652   0.11212   0.00000  Uiso   1.00
C337   C     0.04930   0.81819   0.13653   0.00000  Uiso   1.00
C338   C     0.05188   0.88808   0.17775   0.00000  Uiso   1.00
C339   C     0.11076   0.89664   0.19442   0.00000  Uiso   1.00
C340   C     0.01429   0.80666   0.04613   0.00000  Uiso   1.00
C341   C     0.98744   0.86685   0.01132   0.00000  Uiso   1.00
C342   C     0.01684   0.86571   0.95189   0.00000  Uiso   1.00
C343   C     0.97465   0.68998   0.12376   0.00000  Uiso   1.00
C344   C     0.91446   0.65205   0.15421   0.00000  Uiso   1.00
C345   C     0.91048   0.55266   0.16012   0.00000  Uiso   1.00
H346   H     0.13214   0.64135   0.04997   0.00000  Uiso   1.00
H347   H     0.20448   0.72157   0.11106   0.00000  Uiso   1.00
H348   H     0.14004   0.70034   0.94466   0.00000  Uiso   1.00
H349   H     0.06707   0.48558   0.08753   0.00000  Uiso   1.00
H350   H     0.26075   0.83666   0.18922   0.00000  Uiso   1.00
H351   H     0.12486   0.79186   0.83837   0.00000  Uiso   1.00
H352   H     0.97100   0.33899   0.13963   0.00000  Uiso   1.00
H353   H     0.94764   0.84264   0.13058   0.00000  Uiso   1.00
H354   H     0.00986   0.93391   0.19609   0.00000  Uiso   1.00
H355   H     0.94542   0.91267   0.02970   0.00000  Uiso   1.00
H356   H     0.87246   0.69791   0.17256   0.00000  Uiso   1.00
H357   H     0.10279   0.00900   0.25824   0.00000  Uiso   1.00
H358   H     0.96690   0.96420   0.90738   0.00000  Uiso   1.00
H359   H     0.81304   0.51133   0.20865   0.00000  Uiso   1.00
O360   O     0.22603   0.97926   0.26536   0.00000  Uiso   1.00
O361   O     0.04775   0.92047   0.80505   0.00000  Uiso   1.00
O362   O     0.84589   0.32632   0.20030   0.00000  Uiso   1.00
N363   N     0.21503   0.86468   0.19649   0.00000  Uiso   1.00
N364   N     0.08799   0.82281   0.86846   0.00000  Uiso   1.00
N365   N     0.94414   0.39941   0.15010   0.00000  Uiso   1.00
N366   N     0.13003   0.95742   0.23362   0.00000  Uiso   1.00
N367   N     0.00299   0.91554   0.90560   0.00000  Uiso   1.00
N368   N     0.85914   0.49215   0.18724   0.00000  Uiso   1.00
