data_job_02719
_audit_creation_date              2018-12-19
_audit_creation_method            'Materials Studio'
_symmetry_space_group_name_H-M    'P1'
_symmetry_Int_Tables_number       1
_symmetry_cell_setting            triclinic
loop_
_symmetry_equiv_pos_as_xyz
  x,y,z
_cell_length_a                    12.2731
_cell_length_b                    12.4922
_cell_length_c                    24.1234
_cell_angle_alpha                 90.0000
_cell_angle_beta                  112.0080
_cell_angle_gamma                 90.0000
loop_
_atom_site_label
_atom_site_type_symbol
_atom_site_fract_x
_atom_site_fract_y
_atom_site_fract_z
_atom_site_U_iso_or_equiv
_atom_site_adp_type
_atom_site_occupancy
C1     C     0.33931   0.38403   0.84900   0.00000  Uiso   1.00
C2     C     0.29428   0.30912   0.79525   0.00000  Uiso   1.00
C3     C     0.35226   0.21928   0.78638   0.00000  Uiso   1.00
C4     C     0.29639   0.16126   0.73431   0.00000  Uiso   1.00
C5     C     0.24322   0.04030   0.65716   0.00000  Uiso   1.00
C6     C     0.34069   0.49569   0.82373   0.00000  Uiso   1.00
C7     C     0.43769   0.56272   0.83882   0.00000  Uiso   1.00
C8     C     0.42088   0.66177   0.81074   0.00000  Uiso   1.00
C9     C     0.43974   0.83049   0.77785   0.00000  Uiso   1.00
C10    C     0.24431   0.38615   0.87546   0.00000  Uiso   1.00
C11    C     0.26028   0.36110   0.93405   0.00000  Uiso   1.00
C12    C     0.16234   0.36795   0.94952   0.00000  Uiso   1.00
C13    C     0.03156   0.36658   0.99695   0.00000  Uiso   1.00
C14    C     0.13698   0.44075   0.77231   0.00000  Uiso   1.00
C15    C     0.18438   0.33993   0.75359   0.00000  Uiso   1.00
C16    C     0.12841   0.28204   0.70152   0.00000  Uiso   1.00
C17    C     0.18630   0.19212   0.69258   0.00000  Uiso   1.00
C18    C     0.23080   0.52650   0.78208   0.00000  Uiso   1.00
C19    C     0.21384   0.62548   0.75397   0.00000  Uiso   1.00
C20    C     0.31079   0.69264   0.76900   0.00000  Uiso   1.00
C21    C     0.13442   0.41696   0.83381   0.00000  Uiso   1.00
C22    C     0.03643   0.42385   0.84919   0.00000  Uiso   1.00
C23    C     0.05225   0.39881   0.90779   0.00000  Uiso   1.00
H24    H     0.42487   0.36005   0.88143   0.00000  Uiso   1.00
H25    H     0.43731   0.19547   0.81862   0.00000  Uiso   1.00
H26    H     0.52272   0.53886   0.87106   0.00000  Uiso   1.00
H27    H     0.34534   0.33726   0.96627   0.00000  Uiso   1.00
H28    H     0.40266   0.02661   0.73060   0.00000  Uiso   1.00
H29    H     0.58274   0.75068   0.84119   0.00000  Uiso   1.00
H30    H     0.20870   0.32559   0.04196   0.00000  Uiso   1.00
H31    H     0.05143   0.46474   0.73988   0.00000  Uiso   1.00
H32    H     0.04337   0.30590   0.66930   0.00000  Uiso   1.00
H33    H     0.12879   0.64929   0.72174   0.00000  Uiso   1.00
H34    H     0.95141   0.44770   0.81695   0.00000  Uiso   1.00
H35    H     0.08293   0.11624   0.60940   0.00000  Uiso   1.00
H36    H     0.26301   0.84032   0.72000   0.00000  Uiso   1.00
H37    H     0.88897   0.41522   0.92076   0.00000  Uiso   1.00
O38    O     0.24425   0.96507   0.62612   0.00000  Uiso   1.00
O39    O     0.48051   0.91503   0.77122   0.00000  Uiso   1.00
O40    O     0.98978   0.35731   0.03462   0.00000  Uiso   1.00
N41    N     0.32850   0.06949   0.71177   0.00000  Uiso   1.00
N42    N     0.49688   0.74645   0.81516   0.00000  Uiso   1.00
N43    N     0.14719   0.34905   0.00287   0.00000  Uiso   1.00
N44    N     0.15646   0.11772   0.64655   0.00000  Uiso   1.00
N45    N     0.32483   0.79468   0.74994   0.00000  Uiso   1.00
N46    N     0.97514   0.39728   0.93765   0.00000  Uiso   1.00
C47    C     0.66069   0.88403   0.65100   0.00000  Uiso   1.00
C48    C     0.70572   0.80912   0.70475   0.00000  Uiso   1.00
C49    C     0.64774   0.71928   0.71362   0.00000  Uiso   1.00
C50    C     0.70361   0.66126   0.76569   0.00000  Uiso   1.00
C51    C     0.75678   0.54030   0.84284   0.00000  Uiso   1.00
C52    C     0.65931   0.99569   0.67627   0.00000  Uiso   1.00
C53    C     0.56231   0.06272   0.66118   0.00000  Uiso   1.00
C54    C     0.57912   0.16177   0.68926   0.00000  Uiso   1.00
C55    C     0.56026   0.33049   0.72215   0.00000  Uiso   1.00
C56    C     0.75569   0.88615   0.62454   0.00000  Uiso   1.00
C57    C     0.73972   0.86110   0.56595   0.00000  Uiso   1.00
C58    C     0.83766   0.86795   0.55048   0.00000  Uiso   1.00
C59    C     0.96844   0.86658   0.50305   0.00000  Uiso   1.00
C60    C     0.86302   0.94075   0.72769   0.00000  Uiso   1.00
C61    C     0.81562   0.83993   0.74641   0.00000  Uiso   1.00
C62    C     0.87159   0.78204   0.79848   0.00000  Uiso   1.00
C63    C     0.81370   0.69212   0.80742   0.00000  Uiso   1.00
C64    C     0.76920   0.02650   0.71792   0.00000  Uiso   1.00
C65    C     0.78616   0.12548   0.74603   0.00000  Uiso   1.00
C66    C     0.68921   0.19264   0.73100   0.00000  Uiso   1.00
C67    C     0.86558   0.91696   0.66619   0.00000  Uiso   1.00
C68    C     0.96357   0.92385   0.65081   0.00000  Uiso   1.00
C69    C     0.94775   0.89881   0.59221   0.00000  Uiso   1.00
H70    H     0.57513   0.86005   0.61857   0.00000  Uiso   1.00
H71    H     0.56269   0.69547   0.68138   0.00000  Uiso   1.00
H72    H     0.47728   0.03886   0.62894   0.00000  Uiso   1.00
H73    H     0.65466   0.83726   0.53373   0.00000  Uiso   1.00
H74    H     0.59734   0.52661   0.76940   0.00000  Uiso   1.00
H75    H     0.41726   0.25068   0.65881   0.00000  Uiso   1.00
H76    H     0.79130   0.82559   0.45804   0.00000  Uiso   1.00
H77    H     0.94857   0.96474   0.76012   0.00000  Uiso   1.00
H78    H     0.95663   0.80590   0.83070   0.00000  Uiso   1.00
H79    H     0.87121   0.14929   0.77826   0.00000  Uiso   1.00
H80    H     0.04859   0.94770   0.68305   0.00000  Uiso   1.00
H81    H     0.91707   0.61624   0.89060   0.00000  Uiso   1.00
H82    H     0.73699   0.34032   0.78000   0.00000  Uiso   1.00
H83    H     0.11103   0.91522   0.57924   0.00000  Uiso   1.00
O84    O     0.75575   0.46507   0.87388   0.00000  Uiso   1.00
O85    O     0.51949   0.41503   0.72878   0.00000  Uiso   1.00
O86    O     0.01022   0.85731   0.46538   0.00000  Uiso   1.00
N87    N     0.67150   0.56949   0.78823   0.00000  Uiso   1.00
N88    N     0.50312   0.24645   0.68484   0.00000  Uiso   1.00
N89    N     0.85281   0.84905   0.49713   0.00000  Uiso   1.00
N90    N     0.84354   0.61772   0.85345   0.00000  Uiso   1.00
N91    N     0.67517   0.29468   0.75006   0.00000  Uiso   1.00
N92    N     0.02486   0.89728   0.56235   0.00000  Uiso   1.00
C93    C     0.66069   0.61597   0.15100   0.00000  Uiso   1.00
C94    C     0.70572   0.69088   0.20475   0.00000  Uiso   1.00
C95    C     0.64774   0.78072   0.21362   0.00000  Uiso   1.00
C96    C     0.70361   0.83874   0.26569   0.00000  Uiso   1.00
C97    C     0.75678   0.95970   0.34284   0.00000  Uiso   1.00
C98    C     0.65931   0.50431   0.17627   0.00000  Uiso   1.00
C99    C     0.56231   0.43728   0.16118   0.00000  Uiso   1.00
C100   C     0.57912   0.33823   0.18926   0.00000  Uiso   1.00
C101   C     0.56026   0.16951   0.22215   0.00000  Uiso   1.00
C102   C     0.75569   0.61385   0.12454   0.00000  Uiso   1.00
C103   C     0.73972   0.63890   0.06595   0.00000  Uiso   1.00
C104   C     0.83766   0.63205   0.05048   0.00000  Uiso   1.00
C105   C     0.96844   0.63342   0.00305   0.00000  Uiso   1.00
C106   C     0.86302   0.55925   0.22769   0.00000  Uiso   1.00
C107   C     0.81562   0.66007   0.24641   0.00000  Uiso   1.00
C108   C     0.87159   0.71796   0.29848   0.00000  Uiso   1.00
C109   C     0.81370   0.80788   0.30742   0.00000  Uiso   1.00
C110   C     0.76920   0.47350   0.21792   0.00000  Uiso   1.00
C111   C     0.78616   0.37452   0.24603   0.00000  Uiso   1.00
C112   C     0.68921   0.30736   0.23100   0.00000  Uiso   1.00
C113   C     0.86558   0.58304   0.16619   0.00000  Uiso   1.00
C114   C     0.96357   0.57615   0.15081   0.00000  Uiso   1.00
C115   C     0.94775   0.60119   0.09221   0.00000  Uiso   1.00
H116   H     0.57513   0.63995   0.11857   0.00000  Uiso   1.00
H117   H     0.56269   0.80453   0.18138   0.00000  Uiso   1.00
H118   H     0.47728   0.46114   0.12894   0.00000  Uiso   1.00
H119   H     0.65466   0.66274   0.03373   0.00000  Uiso   1.00
H120   H     0.59734   0.97339   0.26940   0.00000  Uiso   1.00
H121   H     0.41726   0.24932   0.15881   0.00000  Uiso   1.00
H122   H     0.79130   0.67441   0.95804   0.00000  Uiso   1.00
H123   H     0.94857   0.53526   0.26012   0.00000  Uiso   1.00
H124   H     0.95663   0.69410   0.33070   0.00000  Uiso   1.00
H125   H     0.87121   0.35071   0.27826   0.00000  Uiso   1.00
H126   H     0.04859   0.55230   0.18305   0.00000  Uiso   1.00
H127   H     0.91707   0.88376   0.39060   0.00000  Uiso   1.00
H128   H     0.73699   0.15968   0.28000   0.00000  Uiso   1.00
H129   H     0.11103   0.58478   0.07924   0.00000  Uiso   1.00
O130   O     0.75575   0.03493   0.37388   0.00000  Uiso   1.00
O131   O     0.51949   0.08497   0.22878   0.00000  Uiso   1.00
O132   O     0.01022   0.64269   0.96538   0.00000  Uiso   1.00
N133   N     0.67150   0.93051   0.28823   0.00000  Uiso   1.00
N134   N     0.50312   0.25355   0.18484   0.00000  Uiso   1.00
N135   N     0.85281   0.65095   0.99713   0.00000  Uiso   1.00
N136   N     0.84354   0.88228   0.35345   0.00000  Uiso   1.00
N137   N     0.67517   0.20532   0.25006   0.00000  Uiso   1.00
N138   N     0.02486   0.60272   0.06235   0.00000  Uiso   1.00
C139   C     0.33931   0.11597   0.34900   0.00000  Uiso   1.00
C140   C     0.29428   0.19088   0.29525   0.00000  Uiso   1.00
C141   C     0.35226   0.28072   0.28638   0.00000  Uiso   1.00
C142   C     0.29639   0.33874   0.23431   0.00000  Uiso   1.00
C143   C     0.24322   0.45970   0.15716   0.00000  Uiso   1.00
C144   C     0.34069   0.00431   0.32373   0.00000  Uiso   1.00
C145   C     0.43769   0.93728   0.33882   0.00000  Uiso   1.00
C146   C     0.42088   0.83823   0.31074   0.00000  Uiso   1.00
C147   C     0.43974   0.66951   0.27785   0.00000  Uiso   1.00
C148   C     0.24431   0.11385   0.37546   0.00000  Uiso   1.00
C149   C     0.26028   0.13890   0.43405   0.00000  Uiso   1.00
C150   C     0.16234   0.13205   0.44952   0.00000  Uiso   1.00
C151   C     0.03156   0.13342   0.49695   0.00000  Uiso   1.00
C152   C     0.13698   0.05925   0.27231   0.00000  Uiso   1.00
C153   C     0.18438   0.16007   0.25359   0.00000  Uiso   1.00
C154   C     0.12841   0.21796   0.20152   0.00000  Uiso   1.00
C155   C     0.18630   0.30788   0.19258   0.00000  Uiso   1.00
C156   C     0.23080   0.97350   0.28208   0.00000  Uiso   1.00
C157   C     0.21384   0.87452   0.25397   0.00000  Uiso   1.00
C158   C     0.31079   0.80736   0.26900   0.00000  Uiso   1.00
C159   C     0.13442   0.08304   0.33381   0.00000  Uiso   1.00
C160   C     0.03643   0.07615   0.34919   0.00000  Uiso   1.00
C161   C     0.05225   0.10119   0.40779   0.00000  Uiso   1.00
H162   H     0.42487   0.13995   0.38143   0.00000  Uiso   1.00
H163   H     0.43731   0.30453   0.31862   0.00000  Uiso   1.00
H164   H     0.52272   0.96114   0.37106   0.00000  Uiso   1.00
H165   H     0.34534   0.16274   0.46627   0.00000  Uiso   1.00
H166   H     0.40266   0.47339   0.23060   0.00000  Uiso   1.00
H167   H     0.58274   0.74932   0.34119   0.00000  Uiso   1.00
H168   H     0.20870   0.17441   0.54196   0.00000  Uiso   1.00
H169   H     0.05143   0.03526   0.23988   0.00000  Uiso   1.00
H170   H     0.04337   0.19410   0.16930   0.00000  Uiso   1.00
H171   H     0.12879   0.85071   0.22174   0.00000  Uiso   1.00
H172   H     0.95141   0.05230   0.31695   0.00000  Uiso   1.00
H173   H     0.08293   0.38376   0.10940   0.00000  Uiso   1.00
H174   H     0.26301   0.65968   0.22000   0.00000  Uiso   1.00
H175   H     0.88897   0.08478   0.42076   0.00000  Uiso   1.00
O176   O     0.24425   0.53493   0.12612   0.00000  Uiso   1.00
O177   O     0.48051   0.58497   0.27122   0.00000  Uiso   1.00
O178   O     0.98978   0.14269   0.53462   0.00000  Uiso   1.00
N179   N     0.32850   0.43051   0.21177   0.00000  Uiso   1.00
N180   N     0.49688   0.75355   0.31516   0.00000  Uiso   1.00
N181   N     0.14719   0.15095   0.50287   0.00000  Uiso   1.00
N182   N     0.15646   0.38228   0.14655   0.00000  Uiso   1.00
N183   N     0.32483   0.70532   0.24994   0.00000  Uiso   1.00
N184   N     0.97514   0.10272   0.43765   0.00000  Uiso   1.00
