data_job_06689
_audit_creation_date              2018-12-19
_audit_creation_method            'Materials Studio'
_symmetry_space_group_name_H-M    'P1'
_symmetry_Int_Tables_number       1
_symmetry_cell_setting            triclinic
loop_
_symmetry_equiv_pos_as_xyz
  x,y,z
_cell_length_a                    20.2406
_cell_length_b                    20.2847
_cell_length_c                    24.1520
_cell_angle_alpha                 75.5384
_cell_angle_beta                  83.1109
_cell_angle_gamma                 82.4859
loop_
_atom_site_label
_atom_site_type_symbol
_atom_site_fract_x
_atom_site_fract_y
_atom_site_fract_z
_atom_site_U_iso_or_equiv
_atom_site_adp_type
_atom_site_occupancy
C1     C     0.92137   0.62133   0.80096   0.00000  Uiso   1.00
C2     C     0.92415   0.69827   0.77860   0.00000  Uiso   1.00
C3     C     0.98122   0.73201   0.77027   0.00000  Uiso   1.00
C4     C     0.97330   0.80259   0.74950   0.00000  Uiso   1.00
C5     C     0.98716   0.91667   0.71664   0.00000  Uiso   1.00
C6     C     0.87058   0.61242   0.85359   0.00000  Uiso   1.00
C7     C     0.88262   0.57397   0.90829   0.00000  Uiso   1.00
C8     C     0.82960   0.57227   0.95064   0.00000  Uiso   1.00
C9     C     0.76028   0.55303   0.03418   0.00000  Uiso   1.00
C10    C     0.89017   0.59807   0.75557   0.00000  Uiso   1.00
C11    C     0.91868   0.54754   0.72787   0.00000  Uiso   1.00
C12    C     0.88214   0.53375   0.68770   0.00000  Uiso   1.00
C13    C     0.84325   0.49222   0.61905   0.00000  Uiso   1.00
C14    C     0.80580   0.68666   0.77889   0.00000  Uiso   1.00
C15    C     0.86137   0.73376   0.76662   0.00000  Uiso   1.00
C16    C     0.85336   0.80430   0.74586   0.00000  Uiso   1.00
C17    C     0.91042   0.83815   0.73749   0.00000  Uiso   1.00
C18    C     0.80781   0.64790   0.84160   0.00000  Uiso   1.00
C19    C     0.75476   0.64626   0.88388   0.00000  Uiso   1.00
C20    C     0.76671   0.60783   0.93864   0.00000  Uiso   1.00
C21    C     0.82740   0.63356   0.74358   0.00000  Uiso   1.00
C22    C     0.79082   0.61984   0.70345   0.00000  Uiso   1.00
C23    C     0.81926   0.56930   0.67569   0.00000  Uiso   1.00
H24    H     0.97023   0.59369   0.81029   0.00000  Uiso   1.00
H25    H     0.02979   0.70453   0.77955   0.00000  Uiso   1.00
H26    H     0.93120   0.54651   0.91755   0.00000  Uiso   1.00
H27    H     0.96725   0.52009   0.73715   0.00000  Uiso   1.00
H28    H     0.06813   0.84307   0.74021   0.00000  Uiso   1.00
H29    H     0.86024   0.50985   0.03118   0.00000  Uiso   1.00
H30    H     0.93627   0.45414   0.65078   0.00000  Uiso   1.00
H31    H     0.75692   0.71429   0.76956   0.00000  Uiso   1.00
H32    H     0.80478   0.83175   0.73659   0.00000  Uiso   1.00
H33    H     0.70619   0.67373   0.87459   0.00000  Uiso   1.00
H34    H     0.74224   0.64731   0.69419   0.00000  Uiso   1.00
H35    H     0.88551   0.94633   0.70534   0.00000  Uiso   1.00
H36    H     0.67761   0.61310   0.99631   0.00000  Uiso   1.00
H37    H     0.75364   0.55739   0.61591   0.00000  Uiso   1.00
O38    O     0.01214   0.96979   0.70183   0.00000  Uiso   1.00
O39    O     0.73939   0.53261   0.08358   0.00000  Uiso   1.00
O40    O     0.83914   0.45952   0.58449   0.00000  Uiso   1.00
N41    N     0.01859   0.85125   0.73651   0.00000  Uiso   1.00
N42    N     0.82422   0.53972   0.00856   0.00000  Uiso   1.00
N43    N     0.89529   0.48762   0.65293   0.00000  Uiso   1.00
N44    N     0.92032   0.90681   0.71775   0.00000  Uiso   1.00
N45    N     0.72595   0.59528   0.98980   0.00000  Uiso   1.00
N46    N     0.79702   0.54318   0.63416   0.00000  Uiso   1.00
C47    C     0.58783   0.31148   0.65171   0.00000  Uiso   1.00
C48    C     0.65397   0.26568   0.65481   0.00000  Uiso   1.00
C49    C     0.66103   0.19463   0.66905   0.00000  Uiso   1.00
C50    C     0.72582   0.16217   0.66948   0.00000  Uiso   1.00
C51    C     0.82006   0.08537   0.67634   0.00000  Uiso   1.00
C52    C     0.58976   0.35796   0.69219   0.00000  Uiso   1.00
C53    C     0.54281   0.36452   0.73786   0.00000  Uiso   1.00
C54    C     0.55354   0.40975   0.76976   0.00000  Uiso   1.00
C55    C     0.54805   0.47627   0.83463   0.00000  Uiso   1.00
C56    C     0.59001   0.35787   0.59131   0.00000  Uiso   1.00
C57    C     0.54327   0.36436   0.55217   0.00000  Uiso   1.00
C58    C     0.55420   0.40953   0.49914   0.00000  Uiso   1.00
C59    C     0.54911   0.47591   0.40739   0.00000  Uiso   1.00
C60    C     0.69036   0.38016   0.62715   0.00000  Uiso   1.00
C61    C     0.70966   0.30298   0.64146   0.00000  Uiso   1.00
C62    C     0.77446   0.27062   0.64187   0.00000  Uiso   1.00
C63    C     0.78161   0.19954   0.65611   0.00000  Uiso   1.00
C64    C     0.64544   0.39527   0.67885   0.00000  Uiso   1.00
C65    C     0.65625   0.44051   0.71068   0.00000  Uiso   1.00
C66    C     0.60933   0.44712   0.75639   0.00000  Uiso   1.00
C67    C     0.64570   0.39518   0.57797   0.00000  Uiso   1.00
C68    C     0.65671   0.44035   0.52499   0.00000  Uiso   1.00
C69    C     0.60999   0.44691   0.48577   0.00000  Uiso   1.00
H70    H     0.54447   0.28244   0.66211   0.00000  Uiso   1.00
H71    H     0.61792   0.16578   0.67938   0.00000  Uiso   1.00
H72    H     0.49972   0.33565   0.74818   0.00000  Uiso   1.00
H73    H     0.50018   0.33549   0.56251   0.00000  Uiso   1.00
H74    H     0.72391   0.05289   0.69267   0.00000  Uiso   1.00
H75    H     0.47466   0.41108   0.83771   0.00000  Uiso   1.00
H76    H     0.47563   0.41075   0.44621   0.00000  Uiso   1.00
H77    H     0.73371   0.40921   0.61676   0.00000  Uiso   1.00
H78    H     0.81755   0.29950   0.63154   0.00000  Uiso   1.00
H79    H     0.69935   0.46937   0.70034   0.00000  Uiso   1.00
H80    H     0.69981   0.46921   0.51468   0.00000  Uiso   1.00
H81    H     0.88593   0.16143   0.65385   0.00000  Uiso   1.00
H82    H     0.63669   0.51962   0.79889   0.00000  Uiso   1.00
H83    H     0.63766   0.51928   0.40738   0.00000  Uiso   1.00
O84    O     0.85665   0.03270   0.68382   0.00000  Uiso   1.00
O85    O     0.52965   0.50264   0.87410   0.00000  Uiso   1.00
O86    O     0.53092   0.50220   0.36046   0.00000  Uiso   1.00
N87    N     0.75053   0.09349   0.68149   0.00000  Uiso   1.00
N88    N     0.51751   0.42837   0.81711   0.00000  Uiso   1.00
N89    N     0.51841   0.42807   0.45109   0.00000  Uiso   1.00
N90    N     0.83772   0.15189   0.66060   0.00000  Uiso   1.00
N91    N     0.60470   0.48677   0.79621   0.00000  Uiso   1.00
N92    N     0.60559   0.48647   0.43020   0.00000  Uiso   1.00
C93    C     0.32993   0.08987   0.61519   0.00000  Uiso   1.00
C94    C     0.25378   0.09319   0.62350   0.00000  Uiso   1.00
C95    C     0.20973   0.15249   0.61377   0.00000  Uiso   1.00
C96    C     0.14189   0.14469   0.62391   0.00000  Uiso   1.00
C97    C     0.02714   0.15971   0.63392   0.00000  Uiso   1.00
C98    C     0.35465   0.05054   0.67271   0.00000  Uiso   1.00
C99    C     0.39541   0.07399   0.70435   0.00000  Uiso   1.00
C100   C     0.41247   0.03029   0.75591   0.00000  Uiso   1.00
C101   C     0.45436   0.97907   0.84230   0.00000  Uiso   1.00
C102   C     0.35246   0.04412   0.57357   0.00000  Uiso   1.00
C103   C     0.39140   0.06215   0.52186   0.00000  Uiso   1.00
C104   C     0.40663   0.01303   0.48995   0.00000  Uiso   1.00
C105   C     0.44512   0.95184   0.42241   0.00000  Uiso   1.00
C106   C     0.28777   0.97056   0.65050   0.00000  Uiso   1.00
C107   C     0.23089   0.02838   0.64268   0.00000  Uiso   1.00
C108   C     0.16309   0.02049   0.65284   0.00000  Uiso   1.00
C109   C     0.11895   0.07977   0.64312   0.00000  Uiso   1.00
C110   C     0.33175   0.98574   0.69189   0.00000  Uiso   1.00
C111   C     0.34876   0.94199   0.74342   0.00000  Uiso   1.00
C112   C     0.38954   0.96536   0.77512   0.00000  Uiso   1.00
C113   C     0.32956   0.97931   0.59275   0.00000  Uiso   1.00
C114   C     0.34475   0.93015   0.56092   0.00000  Uiso   1.00
C115   C     0.38370   0.94811   0.50917   0.00000  Uiso   1.00
H116   H     0.34776   0.14033   0.60027   0.00000  Uiso   1.00
H117   H     0.22747   0.20264   0.59893   0.00000  Uiso   1.00
H118   H     0.41312   0.12414   0.68949   0.00000  Uiso   1.00
H119   H     0.40911   0.11231   0.50703   0.00000  Uiso   1.00
H120   H     0.08402   0.24315   0.60593   0.00000  Uiso   1.00
H121   H     0.47549   0.07763   0.79688   0.00000  Uiso   1.00
H122   H     0.46703   0.05267   0.41211   0.00000  Uiso   1.00
H123   H     0.26994   0.92010   0.66544   0.00000  Uiso   1.00
H124   H     0.14538   0.97033   0.66768   0.00000  Uiso   1.00
H125   H     0.33104   0.89184   0.75824   0.00000  Uiso   1.00
H126   H     0.32702   0.88000   0.57578   0.00000  Uiso   1.00
H127   H     0.01739   0.05460   0.66173   0.00000  Uiso   1.00
H128   H     0.40887   0.88908   0.85268   0.00000  Uiso   1.00
H129   H     0.40040   0.86412   0.46791   0.00000  Uiso   1.00
O130   O     0.97018   0.18589   0.63415   0.00000  Uiso   1.00
O131   O     0.48378   0.96873   0.88465   0.00000  Uiso   1.00
O132   O     0.47267   0.93599   0.37986   0.00000  Uiso   1.00
N133   N     0.08543   0.19188   0.61875   0.00000  Uiso   1.00
N134   N     0.45143   0.03713   0.79727   0.00000  Uiso   1.00
N135   N     0.44353   0.01379   0.43756   0.00000  Uiso   1.00
N136   N     0.04958   0.09042   0.64877   0.00000  Uiso   1.00
N137   N     0.41558   0.93567   0.82730   0.00000  Uiso   1.00
N138   N     0.40768   0.91234   0.46758   0.00000  Uiso   1.00
C139   C     0.63185   0.37558   0.12893   0.00000  Uiso   1.00
C140   C     0.70059   0.33455   0.12891   0.00000  Uiso   1.00
C141   C     0.76156   0.36181   0.11608   0.00000  Uiso   1.00
C142   C     0.81883   0.31569   0.11848   0.00000  Uiso   1.00
C143   C     0.92612   0.26276   0.11624   0.00000  Uiso   1.00
C144   C     0.59672   0.35061   0.18864   0.00000  Uiso   1.00
C145   C     0.57035   0.39137   0.22604   0.00000  Uiso   1.00
C146   C     0.54018   0.35878   0.27871   0.00000  Uiso   1.00
C147   C     0.48617   0.33079   0.36920   0.00000  Uiso   1.00
C148   C     0.59364   0.35223   0.08778   0.00000  Uiso   1.00
C149   C     0.56467   0.39436   0.04038   0.00000  Uiso   1.00
C150   C     0.53189   0.36313   0.00814   0.00000  Uiso   1.00
C151   C     0.47310   0.33766   0.94202   0.00000  Uiso   1.00
C152   C     0.62513   0.24522   0.15598   0.00000  Uiso   1.00
C153   C     0.69694   0.26375   0.14360   0.00000  Uiso   1.00
C154   C     0.75413   0.21758   0.14601   0.00000  Uiso   1.00
C155   C     0.81518   0.24476   0.13319   0.00000  Uiso   1.00
C156   C     0.59307   0.27981   0.20334   0.00000  Uiso   1.00
C157   C     0.56292   0.24714   0.25597   0.00000  Uiso   1.00
C158   C     0.53653   0.28784   0.29344   0.00000  Uiso   1.00
C159   C     0.58999   0.28143   0.10247   0.00000  Uiso   1.00
C160   C     0.55725   0.25013   0.07030   0.00000  Uiso   1.00
C161   C     0.52824   0.29219   0.02286   0.00000  Uiso   1.00
H162   H     0.63468   0.43070   0.11749   0.00000  Uiso   1.00
H163   H     0.76436   0.41661   0.10472   0.00000  Uiso   1.00
H164   H     0.57318   0.44617   0.21465   0.00000  Uiso   1.00
H165   H     0.56750   0.44915   0.02902   0.00000  Uiso   1.00
H166   H     0.90652   0.36975   0.09706   0.00000  Uiso   1.00
H167   H     0.50338   0.43209   0.32885   0.00000  Uiso   1.00
H168   H     0.49141   0.43838   0.93741   0.00000  Uiso   1.00
H169   H     0.62229   0.19009   0.16742   0.00000  Uiso   1.00
H170   H     0.75129   0.16279   0.15738   0.00000  Uiso   1.00
H171   H     0.56011   0.19235   0.26732   0.00000  Uiso   1.00
H172   H     0.55443   0.19533   0.08169   0.00000  Uiso   1.00
H173   H     0.89592   0.16374   0.13981   0.00000  Uiso   1.00
H174   H     0.49277   0.22608   0.37160   0.00000  Uiso   1.00
H175   H     0.48081   0.23237   0.98016   0.00000  Uiso   1.00
O176   O     0.98630   0.25313   0.11095   0.00000  Uiso   1.00
O177   O     0.45739   0.33491   0.41505   0.00000  Uiso   1.00
O178   O     0.44169   0.34316   0.90148   0.00000  Uiso   1.00
N179   N     0.88632   0.32501   0.10849   0.00000  Uiso   1.00
N180   N     0.50942   0.38329   0.32520   0.00000  Uiso   1.00
N181   N     0.49821   0.38918   0.95925   0.00000  Uiso   1.00
N182   N     0.88062   0.21416   0.13149   0.00000  Uiso   1.00
N183   N     0.50371   0.27244   0.34821   0.00000  Uiso   1.00
N184   N     0.49251   0.27832   0.98225   0.00000  Uiso   1.00
C185   C     0.84865   0.68143   0.28988   0.00000  Uiso   1.00
C186   C     0.85489   0.75728   0.26400   0.00000  Uiso   1.00
C187   C     0.80251   0.80928   0.25884   0.00000  Uiso   1.00
C188   C     0.81857   0.87535   0.23396   0.00000  Uiso   1.00
C189   C     0.81821   0.99107   0.19670   0.00000  Uiso   1.00
C190   C     0.89512   0.65966   0.33796   0.00000  Uiso   1.00
C191   C     0.87656   0.62957   0.39497   0.00000  Uiso   1.00
C192   C     0.92650   0.61345   0.43234   0.00000  Uiso   1.00
C193   C     0.98861   0.57756   0.50988   0.00000  Uiso   1.00
C194   C     0.87932   0.64440   0.24368   0.00000  Uiso   1.00
C195   C     0.84749   0.60146   0.22144   0.00000  Uiso   1.00
C196   C     0.88412   0.57247   0.17944   0.00000  Uiso   1.00
C197   C     0.92170   0.51289   0.11061   0.00000  Uiso   1.00
C198   C     0.97033   0.70630   0.25485   0.00000  Uiso   1.00
C199   C     0.92099   0.77079   0.24498   0.00000  Uiso   1.00
C200   C     0.93713   0.83679   0.22009   0.00000  Uiso   1.00
C201   C     0.88478   0.88888   0.21490   0.00000  Uiso   1.00
C202   C     0.96121   0.67316   0.31893   0.00000  Uiso   1.00
C203   C     0.01119   0.65708   0.35622   0.00000  Uiso   1.00
C204   C     0.99271   0.62697   0.41328   0.00000  Uiso   1.00
C205   C     0.94542   0.65790   0.22465   0.00000  Uiso   1.00
C206   C     0.98211   0.62897   0.18269   0.00000  Uiso   1.00
C207   C     0.95033   0.58600   0.16039   0.00000  Uiso   1.00
H208   H     0.79720   0.67092   0.30469   0.00000  Uiso   1.00
H209   H     0.75137   0.79881   0.27358   0.00000  Uiso   1.00
H210   H     0.82542   0.61912   0.40968   0.00000  Uiso   1.00
H211   H     0.79634   0.59102   0.23617   0.00000  Uiso   1.00
H212   H     0.72970   0.94656   0.23071   0.00000  Uiso   1.00
H213   H     0.88584   0.56765   0.51769   0.00000  Uiso   1.00
H214   H     0.82453   0.50839   0.15182   0.00000  Uiso   1.00
H215   H     0.02179   0.71681   0.24004   0.00000  Uiso   1.00
H216   H     0.98828   0.84723   0.20537   0.00000  Uiso   1.00
H217   H     0.06233   0.66753   0.34148   0.00000  Uiso   1.00
H218   H     0.03325   0.63943   0.16798   0.00000  Uiso   1.00
H219   H     0.92199   0.98586   0.17535   0.00000  Uiso   1.00
H220   H     0.07813   0.60694   0.46234   0.00000  Uiso   1.00
H221   H     0.01682   0.54769   0.09646   0.00000  Uiso   1.00
O222   O     0.79975   0.05118   0.18141   0.00000  Uiso   1.00
O223   O     0.00461   0.55404   0.55792   0.00000  Uiso   1.00
O224   O     0.92417   0.47631   0.07790   0.00000  Uiso   1.00
N225   N     0.77955   0.93791   0.22243   0.00000  Uiso   1.00
N226   N     0.92553   0.58366   0.49074   0.00000  Uiso   1.00
N227   N     0.86822   0.52825   0.14869   0.00000  Uiso   1.00
N228   N     0.88302   0.95906   0.19264   0.00000  Uiso   1.00
N229   N     0.02900   0.60480   0.46096   0.00000  Uiso   1.00
N230   N     0.97169   0.54939   0.11891   0.00000  Uiso   1.00
C231   C     0.32753   0.04477   0.12479   0.00000  Uiso   1.00
C232   C     0.25220   0.06518   0.12695   0.00000  Uiso   1.00
C233   C     0.20326   0.02039   0.13883   0.00000  Uiso   1.00
C234   C     0.13715   0.04918   0.13877   0.00000  Uiso   1.00
C235   C     0.02269   0.07005   0.14391   0.00000  Uiso   1.00
C236   C     0.35332   0.07729   0.16742   0.00000  Uiso   1.00
C237   C     0.38940   0.04268   0.21331   0.00000  Uiso   1.00
C238   C     0.40841   0.08166   0.24732   0.00000  Uiso   1.00
C239   C     0.45097   0.12134   0.31526   0.00000  Uiso   1.00
C240   C     0.35625   0.08148   0.06547   0.00000  Uiso   1.00
C241   C     0.39481   0.05040   0.02565   0.00000  Uiso   1.00
C242   C     0.41630   0.09291   0.97383   0.00000  Uiso   1.00
C243   C     0.46342   0.13910   0.88347   0.00000  Uiso   1.00
C244   C     0.29713   0.17555   0.10359   0.00000  Uiso   1.00
C245   C     0.23569   0.13621   0.11544   0.00000  Uiso   1.00
C246   C     0.16963   0.16507   0.11536   0.00000  Uiso   1.00
C247   C     0.12060   0.12033   0.12723   0.00000  Uiso   1.00
C248   C     0.33681   0.14831   0.15591   0.00000  Uiso   1.00
C249   C     0.35577   0.18736   0.18985   0.00000  Uiso   1.00
C250   C     0.39187   0.15282   0.23578   0.00000  Uiso   1.00
C251   C     0.33974   0.15251   0.05395   0.00000  Uiso   1.00
C252   C     0.36117   0.19508   0.00219   0.00000  Uiso   1.00
C253   C     0.39976   0.16407   0.96229   0.00000  Uiso   1.00
H254   H     0.34039   0.98948   0.13376   0.00000  Uiso   1.00
H255   H     0.21606   0.96542   0.14774   0.00000  Uiso   1.00
H256   H     0.40218   0.98771   0.22221   0.00000  Uiso   1.00
H257   H     0.40758   0.99543   0.03458   0.00000  Uiso   1.00
H258   H     0.07094   0.97008   0.15818   0.00000  Uiso   1.00
H259   H     0.46339   0.01708   0.31519   0.00000  Uiso   1.00
H260   H     0.47479   0.03335   0.91953   0.00000  Uiso   1.00
H261   H     0.28428   0.23085   0.09462   0.00000  Uiso   1.00
H262   H     0.15687   0.22004   0.10645   0.00000  Uiso   1.00
H263   H     0.34299   0.24233   0.18092   0.00000  Uiso   1.00
H264   H     0.34839   0.25004   0.99329   0.00000  Uiso   1.00
H265   H     0.02290   0.17674   0.12467   0.00000  Uiso   1.00
H266   H     0.41535   0.22373   0.28168   0.00000  Uiso   1.00
H267   H     0.42675   0.24001   0.88602   0.00000  Uiso   1.00
O268   O     0.96412   0.06194   0.14994   0.00000  Uiso   1.00
O269   O     0.47901   0.12360   0.35592   0.00000  Uiso   1.00
O270   O     0.49396   0.14495   0.83682   0.00000  Uiso   1.00
N271   N     0.07712   0.02020   0.14866   0.00000  Uiso   1.00
N272   N     0.44403   0.06414   0.29546   0.00000  Uiso   1.00
N273   N     0.45470   0.07936   0.92556   0.00000  Uiso   1.00
N274   N     0.05127   0.13140   0.13063   0.00000  Uiso   1.00
N275   N     0.41818   0.17534   0.27743   0.00000  Uiso   1.00
N276   N     0.42885   0.19056   0.90752   0.00000  Uiso   1.00
C277   C     0.07863   0.37867   0.19904   0.00000  Uiso   1.00
C278   C     0.07585   0.30173   0.22140   0.00000  Uiso   1.00
C279   C     0.01878   0.26799   0.22973   0.00000  Uiso   1.00
C280   C     0.02670   0.19741   0.25050   0.00000  Uiso   1.00
C281   C     0.01284   0.08333   0.28336   0.00000  Uiso   1.00
C282   C     0.12942   0.38758   0.14641   0.00000  Uiso   1.00
C283   C     0.11738   0.42603   0.09171   0.00000  Uiso   1.00
C284   C     0.17040   0.42773   0.04936   0.00000  Uiso   1.00
C285   C     0.23972   0.44697   0.96582   0.00000  Uiso   1.00
C286   C     0.10983   0.40193   0.24443   0.00000  Uiso   1.00
C287   C     0.08132   0.45246   0.27213   0.00000  Uiso   1.00
C288   C     0.11786   0.46625   0.31230   0.00000  Uiso   1.00
C289   C     0.15675   0.50778   0.38095   0.00000  Uiso   1.00
C290   C     0.19420   0.31334   0.22111   0.00000  Uiso   1.00
C291   C     0.13863   0.26624   0.23338   0.00000  Uiso   1.00
C292   C     0.14664   0.19570   0.25414   0.00000  Uiso   1.00
C293   C     0.08958   0.16185   0.26251   0.00000  Uiso   1.00
C294   C     0.19219   0.35210   0.15840   0.00000  Uiso   1.00
C295   C     0.24524   0.35374   0.11612   0.00000  Uiso   1.00
C296   C     0.23329   0.39217   0.06136   0.00000  Uiso   1.00
C297   C     0.17260   0.36644   0.25642   0.00000  Uiso   1.00
C298   C     0.20918   0.38016   0.29655   0.00000  Uiso   1.00
C299   C     0.18074   0.43070   0.32431   0.00000  Uiso   1.00
H300   H     0.02977   0.40631   0.18971   0.00000  Uiso   1.00
H301   H     0.97021   0.29547   0.22045   0.00000  Uiso   1.00
H302   H     0.06880   0.45349   0.08245   0.00000  Uiso   1.00
H303   H     0.03275   0.47991   0.26285   0.00000  Uiso   1.00
H304   H     0.93187   0.15693   0.25979   0.00000  Uiso   1.00
H305   H     0.13976   0.49015   0.96882   0.00000  Uiso   1.00
H306   H     0.06373   0.54586   0.34922   0.00000  Uiso   1.00
H307   H     0.24308   0.28571   0.23044   0.00000  Uiso   1.00
H308   H     0.19522   0.16825   0.26341   0.00000  Uiso   1.00
H309   H     0.29381   0.32627   0.12541   0.00000  Uiso   1.00
H310   H     0.25776   0.35269   0.30581   0.00000  Uiso   1.00
H311   H     0.11449   0.05367   0.29466   0.00000  Uiso   1.00
H312   H     0.32239   0.38690   0.00369   0.00000  Uiso   1.00
H313   H     0.24636   0.44261   0.38409   0.00000  Uiso   1.00
O314   O     0.98786   0.03021   0.29817   0.00000  Uiso   1.00
O315   O     0.26061   0.46739   0.91642   0.00000  Uiso   1.00
O316   O     0.16086   0.54048   0.41551   0.00000  Uiso   1.00
N317   N     0.98141   0.14875   0.26349   0.00000  Uiso   1.00
N318   N     0.17578   0.46028   0.99144   0.00000  Uiso   1.00
N319   N     0.10471   0.51238   0.34707   0.00000  Uiso   1.00
N320   N     0.07968   0.09319   0.28225   0.00000  Uiso   1.00
N321   N     0.27405   0.40472   0.01020   0.00000  Uiso   1.00
N322   N     0.20298   0.45682   0.36584   0.00000  Uiso   1.00
C323   C     0.41217   0.68852   0.34829   0.00000  Uiso   1.00
C324   C     0.34603   0.73432   0.34519   0.00000  Uiso   1.00
C325   C     0.33897   0.80537   0.33095   0.00000  Uiso   1.00
C326   C     0.27418   0.83783   0.33052   0.00000  Uiso   1.00
C327   C     0.17994   0.91463   0.32366   0.00000  Uiso   1.00
C328   C     0.41024   0.64204   0.30781   0.00000  Uiso   1.00
C329   C     0.45719   0.63548   0.26214   0.00000  Uiso   1.00
C330   C     0.44646   0.59025   0.23024   0.00000  Uiso   1.00
C331   C     0.45195   0.52373   0.16537   0.00000  Uiso   1.00
C332   C     0.40999   0.64213   0.40869   0.00000  Uiso   1.00
C333   C     0.45673   0.63564   0.44783   0.00000  Uiso   1.00
C334   C     0.44580   0.59047   0.50086   0.00000  Uiso   1.00
C335   C     0.45089   0.52409   0.59261   0.00000  Uiso   1.00
C336   C     0.30964   0.61984   0.37285   0.00000  Uiso   1.00
C337   C     0.29034   0.69702   0.35854   0.00000  Uiso   1.00
C338   C     0.22554   0.72938   0.35813   0.00000  Uiso   1.00
C339   C     0.21839   0.80046   0.34389   0.00000  Uiso   1.00
C340   C     0.35456   0.60473   0.32115   0.00000  Uiso   1.00
C341   C     0.34375   0.55949   0.28932   0.00000  Uiso   1.00
C342   C     0.39067   0.55288   0.24361   0.00000  Uiso   1.00
C343   C     0.35430   0.60482   0.42203   0.00000  Uiso   1.00
C344   C     0.34329   0.55965   0.47501   0.00000  Uiso   1.00
C345   C     0.39001   0.55309   0.51423   0.00000  Uiso   1.00
H346   H     0.45553   0.71756   0.33789   0.00000  Uiso   1.00
H347   H     0.38208   0.83422   0.32062   0.00000  Uiso   1.00
H348   H     0.50028   0.66435   0.25182   0.00000  Uiso   1.00
H349   H     0.49982   0.66451   0.43749   0.00000  Uiso   1.00
H350   H     0.27609   0.94711   0.30733   0.00000  Uiso   1.00
H351   H     0.52534   0.58892   0.16229   0.00000  Uiso   1.00
H352   H     0.52437   0.58925   0.55379   0.00000  Uiso   1.00
H353   H     0.26629   0.59079   0.38324   0.00000  Uiso   1.00
H354   H     0.18245   0.70050   0.36846   0.00000  Uiso   1.00
H355   H     0.30065   0.53063   0.29966   0.00000  Uiso   1.00
H356   H     0.30019   0.53079   0.48532   0.00000  Uiso   1.00
H357   H     0.11407   0.83857   0.34615   0.00000  Uiso   1.00
H358   H     0.36331   0.48038   0.20111   0.00000  Uiso   1.00
H359   H     0.36234   0.48072   0.59262   0.00000  Uiso   1.00
O360   O     0.14335   0.96730   0.31618   0.00000  Uiso   1.00
O361   O     0.47035   0.49736   0.12590   0.00000  Uiso   1.00
O362   O     0.46908   0.49780   0.63954   0.00000  Uiso   1.00
N363   N     0.24947   0.90651   0.31851   0.00000  Uiso   1.00
N364   N     0.48249   0.57163   0.18289   0.00000  Uiso   1.00
N365   N     0.48159   0.57193   0.54891   0.00000  Uiso   1.00
N366   N     0.16228   0.84811   0.33940   0.00000  Uiso   1.00
N367   N     0.39530   0.51323   0.20379   0.00000  Uiso   1.00
N368   N     0.39441   0.51353   0.56980   0.00000  Uiso   1.00
C369   C     0.67007   0.91013   0.38481   0.00000  Uiso   1.00
C370   C     0.74622   0.90681   0.37650   0.00000  Uiso   1.00
C371   C     0.79027   0.84751   0.38623   0.00000  Uiso   1.00
C372   C     0.85811   0.85531   0.37609   0.00000  Uiso   1.00
C373   C     0.97286   0.84029   0.36608   0.00000  Uiso   1.00
C374   C     0.64535   0.94946   0.32729   0.00000  Uiso   1.00
C375   C     0.60459   0.92601   0.29565   0.00000  Uiso   1.00
C376   C     0.58753   0.96971   0.24409   0.00000  Uiso   1.00
C377   C     0.54564   0.02093   0.15770   0.00000  Uiso   1.00
C378   C     0.64754   0.95588   0.42643   0.00000  Uiso   1.00
C379   C     0.60860   0.93785   0.47814   0.00000  Uiso   1.00
C380   C     0.59337   0.98697   0.51005   0.00000  Uiso   1.00
C381   C     0.55488   0.04816   0.57759   0.00000  Uiso   1.00
C382   C     0.71223   0.02944   0.34950   0.00000  Uiso   1.00
C383   C     0.76911   0.97162   0.35732   0.00000  Uiso   1.00
C384   C     0.83691   0.97951   0.34716   0.00000  Uiso   1.00
C385   C     0.88105   0.92023   0.35688   0.00000  Uiso   1.00
C386   C     0.66825   0.01426   0.30811   0.00000  Uiso   1.00
C387   C     0.65124   0.05801   0.25658   0.00000  Uiso   1.00
C388   C     0.61046   0.03464   0.22488   0.00000  Uiso   1.00
C389   C     0.67044   0.02069   0.40725   0.00000  Uiso   1.00
C390   C     0.65525   0.06985   0.43908   0.00000  Uiso   1.00
C391   C     0.61630   0.05189   0.49083   0.00000  Uiso   1.00
H392   H     0.65224   0.85967   0.39973   0.00000  Uiso   1.00
H393   H     0.77253   0.79736   0.40107   0.00000  Uiso   1.00
H394   H     0.58688   0.87586   0.31051   0.00000  Uiso   1.00
H395   H     0.59089   0.88769   0.49297   0.00000  Uiso   1.00
H396   H     0.91598   0.75685   0.39407   0.00000  Uiso   1.00
H397   H     0.52451   0.92237   0.20312   0.00000  Uiso   1.00
H398   H     0.53297   0.94733   0.58789   0.00000  Uiso   1.00
H399   H     0.73006   0.07990   0.33456   0.00000  Uiso   1.00
H400   H     0.85462   0.02967   0.33232   0.00000  Uiso   1.00
H401   H     0.66896   0.10816   0.24176   0.00000  Uiso   1.00
H402   H     0.67298   0.12000   0.42422   0.00000  Uiso   1.00
H403   H     0.98261   0.94540   0.33827   0.00000  Uiso   1.00
H404   H     0.59113   0.11092   0.14732   0.00000  Uiso   1.00
H405   H     0.59960   0.13588   0.53209   0.00000  Uiso   1.00
O406   O     0.02982   0.81411   0.36585   0.00000  Uiso   1.00
O407   O     0.51622   0.03127   0.11535   0.00000  Uiso   1.00
O408   O     0.52733   0.06401   0.62014   0.00000  Uiso   1.00
N409   N     0.91457   0.80812   0.38125   0.00000  Uiso   1.00
N410   N     0.54857   0.96287   0.20273   0.00000  Uiso   1.00
N411   N     0.55647   0.98621   0.56244   0.00000  Uiso   1.00
N412   N     0.95042   0.90958   0.35123   0.00000  Uiso   1.00
N413   N     0.58442   0.06433   0.17270   0.00000  Uiso   1.00
N414   N     0.59232   0.08766   0.53242   0.00000  Uiso   1.00
C415   C     0.36815   0.62442   0.87107   0.00000  Uiso   1.00
C416   C     0.29941   0.66545   0.87109   0.00000  Uiso   1.00
C417   C     0.23844   0.63819   0.88392   0.00000  Uiso   1.00
C418   C     0.18117   0.68431   0.88152   0.00000  Uiso   1.00
C419   C     0.07388   0.73724   0.88376   0.00000  Uiso   1.00
C420   C     0.40328   0.64939   0.81136   0.00000  Uiso   1.00
C421   C     0.42965   0.60863   0.77396   0.00000  Uiso   1.00
C422   C     0.45982   0.64122   0.72129   0.00000  Uiso   1.00
C423   C     0.51383   0.66921   0.63080   0.00000  Uiso   1.00
C424   C     0.40636   0.64777   0.91222   0.00000  Uiso   1.00
C425   C     0.43533   0.60564   0.95962   0.00000  Uiso   1.00
C426   C     0.46811   0.63687   0.99186   0.00000  Uiso   1.00
C427   C     0.52690   0.66234   0.05798   0.00000  Uiso   1.00
C428   C     0.37487   0.75478   0.84402   0.00000  Uiso   1.00
C429   C     0.30306   0.73625   0.85640   0.00000  Uiso   1.00
C430   C     0.24587   0.78242   0.85399   0.00000  Uiso   1.00
C431   C     0.18482   0.75524   0.86681   0.00000  Uiso   1.00
C432   C     0.40693   0.72019   0.79666   0.00000  Uiso   1.00
C433   C     0.43708   0.75286   0.74403   0.00000  Uiso   1.00
C434   C     0.46347   0.71216   0.70656   0.00000  Uiso   1.00
C435   C     0.41001   0.71857   0.89753   0.00000  Uiso   1.00
C436   C     0.44275   0.74987   0.92970   0.00000  Uiso   1.00
C437   C     0.47176   0.70781   0.97714   0.00000  Uiso   1.00
H438   H     0.36532   0.56930   0.88251   0.00000  Uiso   1.00
H439   H     0.23564   0.58339   0.89528   0.00000  Uiso   1.00
H440   H     0.42682   0.55383   0.78535   0.00000  Uiso   1.00
H441   H     0.43250   0.55085   0.97098   0.00000  Uiso   1.00
H442   H     0.09348   0.63025   0.90294   0.00000  Uiso   1.00
H443   H     0.49662   0.56791   0.67115   0.00000  Uiso   1.00
H444   H     0.50859   0.56162   0.06259   0.00000  Uiso   1.00
H445   H     0.37771   0.80991   0.83258   0.00000  Uiso   1.00
H446   H     0.24871   0.83721   0.84262   0.00000  Uiso   1.00
H447   H     0.43989   0.80765   0.73268   0.00000  Uiso   1.00
H448   H     0.44557   0.80467   0.91831   0.00000  Uiso   1.00
H449   H     0.10408   0.83626   0.86019   0.00000  Uiso   1.00
H450   H     0.50723   0.77392   0.62840   0.00000  Uiso   1.00
H451   H     0.51919   0.76763   0.01984   0.00000  Uiso   1.00
O452   O     0.01370   0.74687   0.88905   0.00000  Uiso   1.00
O453   O     0.54261   0.66509   0.58495   0.00000  Uiso   1.00
O454   O     0.55831   0.65684   0.09852   0.00000  Uiso   1.00
N455   N     0.11368   0.67499   0.89151   0.00000  Uiso   1.00
N456   N     0.49058   0.61671   0.67480   0.00000  Uiso   1.00
N457   N     0.50179   0.61082   0.04075   0.00000  Uiso   1.00
N458   N     0.11938   0.78584   0.86851   0.00000  Uiso   1.00
N459   N     0.49629   0.72756   0.65179   0.00000  Uiso   1.00
N460   N     0.50749   0.72168   0.01775   0.00000  Uiso   1.00
C461   C     0.15135   0.31857   0.71012   0.00000  Uiso   1.00
C462   C     0.14511   0.24272   0.73600   0.00000  Uiso   1.00
C463   C     0.19749   0.19072   0.74116   0.00000  Uiso   1.00
C464   C     0.18143   0.12465   0.76604   0.00000  Uiso   1.00
C465   C     0.18179   0.00893   0.80330   0.00000  Uiso   1.00
C466   C     0.10488   0.34034   0.66204   0.00000  Uiso   1.00
C467   C     0.12344   0.37043   0.60503   0.00000  Uiso   1.00
C468   C     0.07350   0.38655   0.56766   0.00000  Uiso   1.00
C469   C     0.01139   0.42244   0.49012   0.00000  Uiso   1.00
C470   C     0.12068   0.35560   0.75632   0.00000  Uiso   1.00
C471   C     0.15251   0.39854   0.77856   0.00000  Uiso   1.00
C472   C     0.11588   0.42753   0.82056   0.00000  Uiso   1.00
C473   C     0.07830   0.48711   0.88939   0.00000  Uiso   1.00
C474   C     0.02967   0.29370   0.74515   0.00000  Uiso   1.00
C475   C     0.07901   0.22921   0.75502   0.00000  Uiso   1.00
C476   C     0.06287   0.16321   0.77991   0.00000  Uiso   1.00
C477   C     0.11522   0.11112   0.78510   0.00000  Uiso   1.00
C478   C     0.03879   0.32684   0.68107   0.00000  Uiso   1.00
C479   C     0.98881   0.34292   0.64378   0.00000  Uiso   1.00
C480   C     0.00729   0.37303   0.58672   0.00000  Uiso   1.00
C481   C     0.05458   0.34210   0.77535   0.00000  Uiso   1.00
C482   C     0.01789   0.37103   0.81731   0.00000  Uiso   1.00
C483   C     0.04967   0.41400   0.83961   0.00000  Uiso   1.00
H484   H     0.20280   0.32908   0.69531   0.00000  Uiso   1.00
H485   H     0.24863   0.20119   0.72642   0.00000  Uiso   1.00
H486   H     0.17458   0.38088   0.59032   0.00000  Uiso   1.00
H487   H     0.20366   0.40898   0.76383   0.00000  Uiso   1.00
H488   H     0.27030   0.05344   0.76929   0.00000  Uiso   1.00
H489   H     0.11416   0.43235   0.48231   0.00000  Uiso   1.00
H490   H     0.17547   0.49161   0.84818   0.00000  Uiso   1.00
H491   H     0.97821   0.28319   0.75996   0.00000  Uiso   1.00
H492   H     0.01172   0.15277   0.79463   0.00000  Uiso   1.00
H493   H     0.93767   0.33247   0.65852   0.00000  Uiso   1.00
H494   H     0.96675   0.36057   0.83202   0.00000  Uiso   1.00
H495   H     0.07801   0.01414   0.82465   0.00000  Uiso   1.00
H496   H     0.92187   0.39306   0.53766   0.00000  Uiso   1.00
H497   H     0.98318   0.45231   0.90354   0.00000  Uiso   1.00
O498   O     0.20025   0.94882   0.81859   0.00000  Uiso   1.00
O499   O     0.99539   0.44596   0.44208   0.00000  Uiso   1.00
O500   O     0.07583   0.52369   0.92210   0.00000  Uiso   1.00
N501   N     0.22045   0.06209   0.77757   0.00000  Uiso   1.00
N502   N     0.07447   0.41634   0.50926   0.00000  Uiso   1.00
N503   N     0.13178   0.47175   0.85131   0.00000  Uiso   1.00
N504   N     0.11698   0.04094   0.80736   0.00000  Uiso   1.00
N505   N     0.97100   0.39520   0.53904   0.00000  Uiso   1.00
N506   N     0.02831   0.45061   0.88109   0.00000  Uiso   1.00
C507   C     0.67247   0.95523   0.87521   0.00000  Uiso   1.00
C508   C     0.74780   0.93482   0.87305   0.00000  Uiso   1.00
C509   C     0.79674   0.97961   0.86117   0.00000  Uiso   1.00
C510   C     0.86285   0.95082   0.86123   0.00000  Uiso   1.00
C511   C     0.97731   0.92995   0.85609   0.00000  Uiso   1.00
C512   C     0.64668   0.92271   0.83258   0.00000  Uiso   1.00
C513   C     0.61060   0.95732   0.78669   0.00000  Uiso   1.00
C514   C     0.59159   0.91834   0.75268   0.00000  Uiso   1.00
C515   C     0.54903   0.87866   0.68474   0.00000  Uiso   1.00
C516   C     0.64375   0.91852   0.93453   0.00000  Uiso   1.00
C517   C     0.60519   0.94960   0.97435   0.00000  Uiso   1.00
C518   C     0.58370   0.90709   0.02617   0.00000  Uiso   1.00
C519   C     0.53658   0.86090   0.11653   0.00000  Uiso   1.00
C520   C     0.70287   0.82445   0.89641   0.00000  Uiso   1.00
C521   C     0.76431   0.86379   0.88456   0.00000  Uiso   1.00
C522   C     0.83037   0.83493   0.88464   0.00000  Uiso   1.00
C523   C     0.87940   0.87967   0.87277   0.00000  Uiso   1.00
C524   C     0.66319   0.85169   0.84409   0.00000  Uiso   1.00
C525   C     0.64423   0.81264   0.81015   0.00000  Uiso   1.00
C526   C     0.60813   0.84718   0.76422   0.00000  Uiso   1.00
C527   C     0.66026   0.84749   0.94605   0.00000  Uiso   1.00
C528   C     0.63883   0.80492   0.99781   0.00000  Uiso   1.00
C529   C     0.60024   0.83593   0.03771   0.00000  Uiso   1.00
H530   H     0.65961   0.01052   0.86624   0.00000  Uiso   1.00
H531   H     0.78394   0.03458   0.85226   0.00000  Uiso   1.00
H532   H     0.59782   0.01229   0.77779   0.00000  Uiso   1.00
H533   H     0.59242   0.00457   0.96542   0.00000  Uiso   1.00
H534   H     0.92906   0.02992   0.84182   0.00000  Uiso   1.00
H535   H     0.53661   0.98292   0.68481   0.00000  Uiso   1.00
H536   H     0.52521   0.96665   0.08047   0.00000  Uiso   1.00
H537   H     0.71572   0.76915   0.90538   0.00000  Uiso   1.00
H538   H     0.84313   0.77996   0.89355   0.00000  Uiso   1.00
H539   H     0.65701   0.75767   0.81908   0.00000  Uiso   1.00
H540   H     0.65161   0.74996   0.00671   0.00000  Uiso   1.00
H541   H     0.97710   0.82326   0.87533   0.00000  Uiso   1.00
H542   H     0.58465   0.77627   0.71832   0.00000  Uiso   1.00
H543   H     0.57325   0.75999   0.11398   0.00000  Uiso   1.00
O544   O     0.03588   0.93806   0.85006   0.00000  Uiso   1.00
O545   O     0.52099   0.87640   0.64408   0.00000  Uiso   1.00
O546   O     0.50604   0.85505   0.16318   0.00000  Uiso   1.00
N547   N     0.92288   0.97980   0.85134   0.00000  Uiso   1.00
N548   N     0.55597   0.93586   0.70454   0.00000  Uiso   1.00
N549   N     0.54530   0.92064   0.07444   0.00000  Uiso   1.00
N550   N     0.94873   0.86860   0.86937   0.00000  Uiso   1.00
N551   N     0.58182   0.82466   0.72257   0.00000  Uiso   1.00
N552   N     0.57115   0.80944   0.09248   0.00000  Uiso   1.00
