data_job_02672
_audit_creation_date              2018-12-19
_audit_creation_method            'Materials Studio'
_symmetry_space_group_name_H-M    'P1'
_symmetry_Int_Tables_number       1
_symmetry_cell_setting            triclinic
loop_
_symmetry_equiv_pos_as_xyz
  x,y,z
_cell_length_a                    12.7163
_cell_length_b                    15.7219
_cell_length_c                    15.7875
_cell_angle_alpha                 90.0000
_cell_angle_beta                  90.0000
_cell_angle_gamma                 90.0000
loop_
_atom_site_label
_atom_site_type_symbol
_atom_site_fract_x
_atom_site_fract_y
_atom_site_fract_z
_atom_site_U_iso_or_equiv
_atom_site_adp_type
_atom_site_occupancy
C1     C     0.73904   0.59105   0.68493   0.00000  Uiso   1.00
C2     C     0.70605   0.51475   0.73831   0.00000  Uiso   1.00
C3     C     0.65399   0.51838   0.81548   0.00000  Uiso   1.00
C4     C     0.63079   0.44143   0.85438   0.00000  Uiso   1.00
C5     C     0.57537   0.33477   0.94291   0.00000  Uiso   1.00
C6     C     0.85732   0.58228   0.67164   0.00000  Uiso   1.00
C7     C     0.93245   0.64269   0.69275   0.00000  Uiso   1.00
C8     C     0.03659   0.62259   0.67551   0.00000  Uiso   1.00
C9     C     0.21601   0.62080   0.66049   0.00000  Uiso   1.00
C10    C     0.68895   0.57806   0.59813   0.00000  Uiso   1.00
C11    C     0.62254   0.63495   0.55742   0.00000  Uiso   1.00
C12    C     0.58495   0.61131   0.47828   0.00000  Uiso   1.00
C13    C     0.50296   0.60298   0.34912   0.00000  Uiso   1.00
C14    C     0.79039   0.44794   0.61676   0.00000  Uiso   1.00
C15    C     0.73394   0.43701   0.70128   0.00000  Uiso   1.00
C16    C     0.71081   0.36003   0.74006   0.00000  Uiso   1.00
C17    C     0.65873   0.36355   0.81728   0.00000  Uiso   1.00
C18    C     0.88522   0.50454   0.63461   0.00000  Uiso   1.00
C19    C     0.98927   0.48435   0.61733   0.00000  Uiso   1.00
C20    C     0.06454   0.54472   0.63842   0.00000  Uiso   1.00
C21    C     0.71685   0.50033   0.56110   0.00000  Uiso   1.00
C22    C     0.67936   0.47660   0.48200   0.00000  Uiso   1.00
C23    C     0.61290   0.53343   0.44118   0.00000  Uiso   1.00
H24    H     0.71733   0.65157   0.71376   0.00000  Uiso   1.00
H25    H     0.63243   0.57855   0.84412   0.00000  Uiso   1.00
H26    H     0.91084   0.70285   0.72140   0.00000  Uiso   1.00
H27    H     0.60098   0.69510   0.58610   0.00000  Uiso   1.00
H28    H     0.55064   0.46330   0.97234   0.00000  Uiso   1.00
H29    H     0.13768   0.72540   0.71355   0.00000  Uiso   1.00
H30    H     0.48427   0.70907   0.42823   0.00000  Uiso   1.00
H31    H     0.81211   0.38742   0.58793   0.00000  Uiso   1.00
H32    H     0.73241   0.29989   0.71139   0.00000  Uiso   1.00
H33    H     0.01083   0.42419   0.58867   0.00000  Uiso   1.00
H34    H     0.70096   0.41644   0.45336   0.00000  Uiso   1.00
H35    H     0.63179   0.23713   0.86461   0.00000  Uiso   1.00
H36    H     0.21884   0.49924   0.60582   0.00000  Uiso   1.00
H37    H     0.56543   0.48290   0.32050   0.00000  Uiso   1.00
O38    O     0.53711   0.29741   0.00198   0.00000  Uiso   1.00
O39    O     0.30728   0.64128   0.66244   0.00000  Uiso   1.00
O40    O     0.45002   0.61985   0.28811   0.00000  Uiso   1.00
N41    N     0.58066   0.42209   0.93004   0.00000  Uiso   1.00
N42    N     0.12951   0.66713   0.68809   0.00000  Uiso   1.00
N43    N     0.51865   0.65187   0.42133   0.00000  Uiso   1.00
N44    N     0.62432   0.30039   0.87207   0.00000  Uiso   1.00
N45    N     0.17317   0.54543   0.63013   0.00000  Uiso   1.00
N46    N     0.56232   0.53017   0.36336   0.00000  Uiso   1.00
C47    C     0.76096   0.40895   0.18493   0.00000  Uiso   1.00
C48    C     0.79395   0.48525   0.23831   0.00000  Uiso   1.00
C49    C     0.84601   0.48162   0.31548   0.00000  Uiso   1.00
C50    C     0.86921   0.55857   0.35438   0.00000  Uiso   1.00
C51    C     0.92463   0.66523   0.44291   0.00000  Uiso   1.00
C52    C     0.64268   0.41772   0.17164   0.00000  Uiso   1.00
C53    C     0.56755   0.35731   0.19275   0.00000  Uiso   1.00
C54    C     0.46341   0.37741   0.17551   0.00000  Uiso   1.00
C55    C     0.28399   0.37920   0.16049   0.00000  Uiso   1.00
C56    C     0.81105   0.42194   0.09813   0.00000  Uiso   1.00
C57    C     0.87746   0.36505   0.05742   0.00000  Uiso   1.00
C58    C     0.91505   0.38869   0.97828   0.00000  Uiso   1.00
C59    C     0.99704   0.39702   0.84912   0.00000  Uiso   1.00
C60    C     0.70961   0.55206   0.11676   0.00000  Uiso   1.00
C61    C     0.76606   0.56299   0.20128   0.00000  Uiso   1.00
C62    C     0.78919   0.63997   0.24006   0.00000  Uiso   1.00
C63    C     0.84127   0.63645   0.31728   0.00000  Uiso   1.00
C64    C     0.61478   0.49546   0.13461   0.00000  Uiso   1.00
C65    C     0.51073   0.51565   0.11733   0.00000  Uiso   1.00
C66    C     0.43546   0.45528   0.13842   0.00000  Uiso   1.00
C67    C     0.78315   0.49967   0.06110   0.00000  Uiso   1.00
C68    C     0.82064   0.52340   0.98200   0.00000  Uiso   1.00
C69    C     0.88710   0.46657   0.94118   0.00000  Uiso   1.00
H70    H     0.78267   0.34843   0.21376   0.00000  Uiso   1.00
H71    H     0.86757   0.42145   0.34412   0.00000  Uiso   1.00
H72    H     0.58916   0.29715   0.22140   0.00000  Uiso   1.00
H73    H     0.89902   0.30490   0.08610   0.00000  Uiso   1.00
H74    H     0.94936   0.53670   0.47234   0.00000  Uiso   1.00
H75    H     0.36232   0.27460   0.21355   0.00000  Uiso   1.00
H76    H     0.01573   0.29093   0.92823   0.00000  Uiso   1.00
H77    H     0.68789   0.61258   0.08793   0.00000  Uiso   1.00
H78    H     0.76759   0.70011   0.21139   0.00000  Uiso   1.00
H79    H     0.48917   0.57581   0.08867   0.00000  Uiso   1.00
H80    H     0.79904   0.58356   0.95336   0.00000  Uiso   1.00
H81    H     0.86821   0.76287   0.36461   0.00000  Uiso   1.00
H82    H     0.28116   0.50076   0.10582   0.00000  Uiso   1.00
H83    H     0.93457   0.51710   0.82050   0.00000  Uiso   1.00
O84    O     0.96289   0.70259   0.50198   0.00000  Uiso   1.00
O85    O     0.19272   0.35872   0.16244   0.00000  Uiso   1.00
O86    O     0.04998   0.38015   0.78811   0.00000  Uiso   1.00
N87    N     0.91934   0.57791   0.43004   0.00000  Uiso   1.00
N88    N     0.37049   0.33287   0.18809   0.00000  Uiso   1.00
N89    N     0.98135   0.34813   0.92133   0.00000  Uiso   1.00
N90    N     0.87568   0.69961   0.37207   0.00000  Uiso   1.00
N91    N     0.32683   0.45457   0.13013   0.00000  Uiso   1.00
N92    N     0.93768   0.46983   0.86336   0.00000  Uiso   1.00
C93    C     0.26096   0.09105   0.81507   0.00000  Uiso   1.00
C94    C     0.29395   0.01475   0.76169   0.00000  Uiso   1.00
C95    C     0.34601   0.01838   0.68452   0.00000  Uiso   1.00
C96    C     0.36921   0.94143   0.64562   0.00000  Uiso   1.00
C97    C     0.42463   0.83477   0.55709   0.00000  Uiso   1.00
C98    C     0.14268   0.08228   0.82836   0.00000  Uiso   1.00
C99    C     0.06755   0.14269   0.80725   0.00000  Uiso   1.00
C100   C     0.96341   0.12259   0.82449   0.00000  Uiso   1.00
C101   C     0.78399   0.12080   0.83951   0.00000  Uiso   1.00
C102   C     0.31105   0.07806   0.90187   0.00000  Uiso   1.00
C103   C     0.37746   0.13495   0.94258   0.00000  Uiso   1.00
C104   C     0.41505   0.11131   0.02172   0.00000  Uiso   1.00
C105   C     0.49704   0.10298   0.15088   0.00000  Uiso   1.00
C106   C     0.20961   0.94794   0.88324   0.00000  Uiso   1.00
C107   C     0.26606   0.93701   0.79872   0.00000  Uiso   1.00
C108   C     0.28919   0.86003   0.75994   0.00000  Uiso   1.00
C109   C     0.34127   0.86355   0.68272   0.00000  Uiso   1.00
C110   C     0.11478   0.00454   0.86539   0.00000  Uiso   1.00
C111   C     0.01073   0.98435   0.88267   0.00000  Uiso   1.00
C112   C     0.93546   0.04472   0.86158   0.00000  Uiso   1.00
C113   C     0.28315   0.00033   0.93890   0.00000  Uiso   1.00
C114   C     0.32064   0.97660   0.01800   0.00000  Uiso   1.00
C115   C     0.38710   0.03343   0.05882   0.00000  Uiso   1.00
H116   H     0.28267   0.15157   0.78624   0.00000  Uiso   1.00
H117   H     0.36757   0.07855   0.65588   0.00000  Uiso   1.00
H118   H     0.08916   0.20285   0.77860   0.00000  Uiso   1.00
H119   H     0.39902   0.19510   0.91390   0.00000  Uiso   1.00
H120   H     0.44936   0.96330   0.52766   0.00000  Uiso   1.00
H121   H     0.86232   0.22540   0.78645   0.00000  Uiso   1.00
H122   H     0.51573   0.20907   0.07177   0.00000  Uiso   1.00
H123   H     0.18789   0.88742   0.91207   0.00000  Uiso   1.00
H124   H     0.26759   0.79989   0.78861   0.00000  Uiso   1.00
H125   H     0.98917   0.92419   0.91133   0.00000  Uiso   1.00
H126   H     0.29904   0.91644   0.04664   0.00000  Uiso   1.00
H127   H     0.36821   0.73713   0.63539   0.00000  Uiso   1.00
H128   H     0.78116   0.99924   0.89418   0.00000  Uiso   1.00
H129   H     0.43457   0.98290   0.17950   0.00000  Uiso   1.00
O130   O     0.46289   0.79741   0.49802   0.00000  Uiso   1.00
O131   O     0.69272   0.14128   0.83756   0.00000  Uiso   1.00
O132   O     0.54998   0.11985   0.21189   0.00000  Uiso   1.00
N133   N     0.41934   0.92209   0.56996   0.00000  Uiso   1.00
N134   N     0.87049   0.16713   0.81191   0.00000  Uiso   1.00
N135   N     0.48135   0.15187   0.07867   0.00000  Uiso   1.00
N136   N     0.37568   0.80039   0.62793   0.00000  Uiso   1.00
N137   N     0.82683   0.04543   0.86987   0.00000  Uiso   1.00
N138   N     0.43768   0.03017   0.13664   0.00000  Uiso   1.00
C139   C     0.23904   0.90895   0.31507   0.00000  Uiso   1.00
C140   C     0.20605   0.98525   0.26169   0.00000  Uiso   1.00
C141   C     0.15399   0.98162   0.18452   0.00000  Uiso   1.00
C142   C     0.13079   0.05857   0.14562   0.00000  Uiso   1.00
C143   C     0.07537   0.16523   0.05709   0.00000  Uiso   1.00
C144   C     0.35732   0.91772   0.32836   0.00000  Uiso   1.00
C145   C     0.43245   0.85731   0.30725   0.00000  Uiso   1.00
C146   C     0.53659   0.87741   0.32449   0.00000  Uiso   1.00
C147   C     0.71601   0.87920   0.33951   0.00000  Uiso   1.00
C148   C     0.18895   0.92194   0.40187   0.00000  Uiso   1.00
C149   C     0.12254   0.86505   0.44258   0.00000  Uiso   1.00
C150   C     0.08495   0.88869   0.52172   0.00000  Uiso   1.00
C151   C     0.00296   0.89702   0.65088   0.00000  Uiso   1.00
C152   C     0.29039   0.05206   0.38324   0.00000  Uiso   1.00
C153   C     0.23394   0.06299   0.29872   0.00000  Uiso   1.00
C154   C     0.21081   0.13997   0.25994   0.00000  Uiso   1.00
C155   C     0.15873   0.13645   0.18272   0.00000  Uiso   1.00
C156   C     0.38522   0.99546   0.36539   0.00000  Uiso   1.00
C157   C     0.48927   0.01565   0.38267   0.00000  Uiso   1.00
C158   C     0.56454   0.95528   0.36158   0.00000  Uiso   1.00
C159   C     0.21685   0.99967   0.43890   0.00000  Uiso   1.00
C160   C     0.17936   0.02340   0.51800   0.00000  Uiso   1.00
C161   C     0.11290   0.96657   0.55882   0.00000  Uiso   1.00
H162   H     0.21733   0.84843   0.28624   0.00000  Uiso   1.00
H163   H     0.13243   0.92145   0.15588   0.00000  Uiso   1.00
H164   H     0.41084   0.79715   0.27860   0.00000  Uiso   1.00
H165   H     0.10098   0.80490   0.41390   0.00000  Uiso   1.00
H166   H     0.05064   0.03670   0.02766   0.00000  Uiso   1.00
H167   H     0.63768   0.77460   0.28645   0.00000  Uiso   1.00
H168   H     0.98427   0.79093   0.57177   0.00000  Uiso   1.00
H169   H     0.31211   0.11258   0.41207   0.00000  Uiso   1.00
H170   H     0.23241   0.20011   0.28861   0.00000  Uiso   1.00
H171   H     0.51083   0.07581   0.41133   0.00000  Uiso   1.00
H172   H     0.20096   0.08356   0.54664   0.00000  Uiso   1.00
H173   H     0.13179   0.26287   0.13539   0.00000  Uiso   1.00
H174   H     0.71884   0.00076   0.39418   0.00000  Uiso   1.00
H175   H     0.06543   0.01710   0.67950   0.00000  Uiso   1.00
O176   O     0.03711   0.20259   0.99802   0.00000  Uiso   1.00
O177   O     0.80728   0.85872   0.33756   0.00000  Uiso   1.00
O178   O     0.95002   0.88015   0.71189   0.00000  Uiso   1.00
N179   N     0.08066   0.07791   0.06996   0.00000  Uiso   1.00
N180   N     0.62951   0.83287   0.31191   0.00000  Uiso   1.00
N181   N     0.01865   0.84813   0.57867   0.00000  Uiso   1.00
N182   N     0.12432   0.19961   0.12793   0.00000  Uiso   1.00
N183   N     0.67317   0.95457   0.36987   0.00000  Uiso   1.00
N184   N     0.06232   0.96983   0.63664   0.00000  Uiso   1.00
