data_job_04373
_audit_creation_date              2018-12-19
_audit_creation_method            'Materials Studio'
_symmetry_space_group_name_H-M    'P1'
_symmetry_Int_Tables_number       1
_symmetry_cell_setting            triclinic
loop_
_symmetry_equiv_pos_as_xyz
  x,y,z
_cell_length_a                    15.1481
_cell_length_b                    15.1481
_cell_length_c                    19.1712
_cell_angle_alpha                 90.0000
_cell_angle_beta                  90.0000
_cell_angle_gamma                 90.0000
loop_
_atom_site_label
_atom_site_type_symbol
_atom_site_fract_x
_atom_site_fract_y
_atom_site_fract_z
_atom_site_U_iso_or_equiv
_atom_site_adp_type
_atom_site_occupancy
C1     C     0.96779   0.71959   0.43049   0.00000  Uiso   1.00
C2     C     0.88856   0.71094   0.47908   0.00000  Uiso   1.00
C3     C     0.89151   0.71210   0.55142   0.00000  Uiso   1.00
C4     C     0.81176   0.70321   0.58642   0.00000  Uiso   1.00
C5     C     0.70087   0.69121   0.66736   0.00000  Uiso   1.00
C6     C     0.96637   0.63793   0.38399   0.00000  Uiso   1.00
C7     C     0.03475   0.57771   0.37639   0.00000  Uiso   1.00
C8     C     0.02051   0.50737   0.33134   0.00000  Uiso   1.00
C9     C     0.03046   0.38205   0.26462   0.00000  Uiso   1.00
C10    C     0.94780   0.79767   0.38284   0.00000  Uiso   1.00
C11    C     0.00058   0.87176   0.37424   0.00000  Uiso   1.00
C12    C     0.97071   0.93591   0.32820   0.00000  Uiso   1.00
C13    C     0.95182   0.05861   0.25968   0.00000  Uiso   1.00
C14    C     0.82092   0.70174   0.36400   0.00000  Uiso   1.00
C15    C     0.80878   0.70124   0.44296   0.00000  Uiso   1.00
C16    C     0.72901   0.69235   0.47786   0.00000  Uiso   1.00
C17    C     0.73184   0.69351   0.55024   0.00000  Uiso   1.00
C18    C     0.88660   0.62823   0.34788   0.00000  Uiso   1.00
C19    C     0.87226   0.55796   0.30283   0.00000  Uiso   1.00
C20    C     0.94060   0.49766   0.29516   0.00000  Uiso   1.00
C21    C     0.86803   0.78798   0.34672   0.00000  Uiso   1.00
C22    C     0.83808   0.85201   0.30068   0.00000  Uiso   1.00
C23    C     0.89080   0.92619   0.29202   0.00000  Uiso   1.00
H24    H     0.02990   0.72713   0.45861   0.00000  Uiso   1.00
H25    H     0.95326   0.71960   0.57935   0.00000  Uiso   1.00
H26    H     0.09648   0.58524   0.40434   0.00000  Uiso   1.00
H27    H     0.06231   0.87924   0.40220   0.00000  Uiso   1.00
H28    H     0.83310   0.70693   0.69730   0.00000  Uiso   1.00
H29    H     0.13512   0.42365   0.32826   0.00000  Uiso   1.00
H30    H     0.06305   0.04361   0.32373   0.00000  Uiso   1.00
H31    H     0.75882   0.69419   0.33588   0.00000  Uiso   1.00
H32    H     0.66729   0.68485   0.44990   0.00000  Uiso   1.00
H33    H     0.81052   0.55049   0.27488   0.00000  Uiso   1.00
H34    H     0.77634   0.84449   0.27274   0.00000  Uiso   1.00
H35    H     0.60100   0.67872   0.59223   0.00000  Uiso   1.00
H36    H     0.90302   0.39544   0.22318   0.00000  Uiso   1.00
H37    H     0.83095   0.01540   0.21866   0.00000  Uiso   1.00
O38    O     0.66174   0.68725   0.72198   0.00000  Uiso   1.00
O39    O     0.05798   0.31560   0.23780   0.00000  Uiso   1.00
O40    O     0.96343   0.12898   0.23187   0.00000  Uiso   1.00
N41    N     0.79104   0.70159   0.65692   0.00000  Uiso   1.00
N42    N     0.07340   0.43673   0.31190   0.00000  Uiso   1.00
N43    N     0.00604   0.01634   0.30766   0.00000  Uiso   1.00
N44    N     0.66615   0.68642   0.60038   0.00000  Uiso   1.00
N45    N     0.94851   0.42155   0.25536   0.00000  Uiso   1.00
N46    N     0.88114   0.00116   0.25112   0.00000  Uiso   1.00
C47    C     0.22738   0.43044   0.56642   0.00000  Uiso   1.00
C48    C     0.24238   0.35025   0.51982   0.00000  Uiso   1.00
C49    C     0.26362   0.35258   0.44943   0.00000  Uiso   1.00
C50    C     0.27461   0.27199   0.41604   0.00000  Uiso   1.00
C51    C     0.29936   0.15965   0.33823   0.00000  Uiso   1.00
C52    C     0.13541   0.41919   0.59753   0.00000  Uiso   1.00
C53    C     0.06673   0.47949   0.59249   0.00000  Uiso   1.00
C54    C     0.98768   0.45694   0.62452   0.00000  Uiso   1.00
C55    C     0.84640   0.45166   0.66740   0.00000  Uiso   1.00
C56    C     0.29182   0.42097   0.62707   0.00000  Uiso   1.00
C57    C     0.35464   0.48277   0.64687   0.00000  Uiso   1.00
C58    C     0.40727   0.46173   0.70378   0.00000  Uiso   1.00
C59    C     0.50884   0.45919   0.79252   0.00000  Uiso   1.00
C60    C     0.20912   0.28319   0.63230   0.00000  Uiso   1.00
C61    C     0.23246   0.27027   0.55561   0.00000  Uiso   1.00
C62    C     0.24342   0.18966   0.52232   0.00000  Uiso   1.00
C63    C     0.26468   0.19186   0.45189   0.00000  Uiso   1.00
C64    C     0.12549   0.33921   0.63331   0.00000  Uiso   1.00
C65    C     0.04653   0.31657   0.66537   0.00000  Uiso   1.00
C66    C     0.97775   0.37682   0.66037   0.00000  Uiso   1.00
C67    C     0.28191   0.34098   0.66285   0.00000  Uiso   1.00
C68    C     0.33445   0.31984   0.71975   0.00000  Uiso   1.00
C69    C     0.39734   0.38160   0.73963   0.00000  Uiso   1.00
H70    H     0.23509   0.49272   0.53857   0.00000  Uiso   1.00
H71    H     0.27128   0.41450   0.42175   0.00000  Uiso   1.00
H72    H     0.07443   0.54139   0.56480   0.00000  Uiso   1.00
H73    H     0.36230   0.54466   0.61916   0.00000  Uiso   1.00
H74    H     0.30700   0.29250   0.30802   0.00000  Uiso   1.00
H75    H     0.89193   0.56008   0.60965   0.00000  Uiso   1.00
H76    H     0.49896   0.56698   0.72430   0.00000  Uiso   1.00
H77    H     0.20140   0.22091   0.66017   0.00000  Uiso   1.00
H78    H     0.23574   0.12777   0.55002   0.00000  Uiso   1.00
H79    H     0.03888   0.25467   0.69306   0.00000  Uiso   1.00
H80    H     0.32675   0.25794   0.74743   0.00000  Uiso   1.00
H81    H     0.27815   0.05978   0.41213   0.00000  Uiso   1.00
H82    H     0.86308   0.32736   0.71376   0.00000  Uiso   1.00
H83    H     0.47011   0.33426   0.82841   0.00000  Uiso   1.00
O84    O     0.31574   0.11977   0.28542   0.00000  Uiso   1.00
O85    O     0.77120   0.47084   0.68116   0.00000  Uiso   1.00
O86    O     0.56761   0.47989   0.83157   0.00000  Uiso   1.00
N87    N     0.29551   0.25051   0.34764   0.00000  Uiso   1.00
N88    N     0.90744   0.50067   0.62964   0.00000  Uiso   1.00
N89    N     0.47495   0.50714   0.73684   0.00000  Uiso   1.00
N90    N     0.27999   0.12529   0.40366   0.00000  Uiso   1.00
N91    N     0.89192   0.37545   0.68566   0.00000  Uiso   1.00
N92    N     0.45943   0.38192   0.79286   0.00000  Uiso   1.00
C93    C     0.03221   0.28041   0.93049   0.00000  Uiso   1.00
C94    C     0.11144   0.28906   0.97908   0.00000  Uiso   1.00
C95    C     0.10849   0.28790   0.05142   0.00000  Uiso   1.00
C96    C     0.18824   0.29679   0.08642   0.00000  Uiso   1.00
C97    C     0.29913   0.30879   0.16736   0.00000  Uiso   1.00
C98    C     0.03363   0.36207   0.88399   0.00000  Uiso   1.00
C99    C     0.96525   0.42229   0.87639   0.00000  Uiso   1.00
C100   C     0.97949   0.49263   0.83134   0.00000  Uiso   1.00
C101   C     0.96954   0.61795   0.76462   0.00000  Uiso   1.00
C102   C     0.05220   0.20233   0.88284   0.00000  Uiso   1.00
C103   C     0.99942   0.12824   0.87424   0.00000  Uiso   1.00
C104   C     0.02929   0.06409   0.82820   0.00000  Uiso   1.00
C105   C     0.04818   0.94139   0.75968   0.00000  Uiso   1.00
C106   C     0.17908   0.29826   0.86400   0.00000  Uiso   1.00
C107   C     0.19122   0.29876   0.94296   0.00000  Uiso   1.00
C108   C     0.27099   0.30765   0.97786   0.00000  Uiso   1.00
C109   C     0.26816   0.30649   0.05024   0.00000  Uiso   1.00
C110   C     0.11340   0.37177   0.84788   0.00000  Uiso   1.00
C111   C     0.12774   0.44204   0.80283   0.00000  Uiso   1.00
C112   C     0.05940   0.50234   0.79516   0.00000  Uiso   1.00
C113   C     0.13197   0.21202   0.84672   0.00000  Uiso   1.00
C114   C     0.16192   0.14799   0.80068   0.00000  Uiso   1.00
C115   C     0.10920   0.07381   0.79202   0.00000  Uiso   1.00
H116   H     0.97010   0.27287   0.95861   0.00000  Uiso   1.00
H117   H     0.04674   0.28040   0.07935   0.00000  Uiso   1.00
H118   H     0.90352   0.41476   0.90434   0.00000  Uiso   1.00
H119   H     0.93769   0.12076   0.90220   0.00000  Uiso   1.00
H120   H     0.16690   0.29307   0.19730   0.00000  Uiso   1.00
H121   H     0.86488   0.57635   0.82826   0.00000  Uiso   1.00
H122   H     0.93695   0.95639   0.82373   0.00000  Uiso   1.00
H123   H     0.24118   0.30581   0.83588   0.00000  Uiso   1.00
H124   H     0.33271   0.31515   0.94990   0.00000  Uiso   1.00
H125   H     0.18948   0.44951   0.77488   0.00000  Uiso   1.00
H126   H     0.22366   0.15551   0.77274   0.00000  Uiso   1.00
H127   H     0.39900   0.32128   0.09223   0.00000  Uiso   1.00
H128   H     0.09698   0.60456   0.72318   0.00000  Uiso   1.00
H129   H     0.16905   0.98460   0.71866   0.00000  Uiso   1.00
O130   O     0.33826   0.31275   0.22198   0.00000  Uiso   1.00
O131   O     0.94202   0.68440   0.73780   0.00000  Uiso   1.00
O132   O     0.03657   0.87102   0.73187   0.00000  Uiso   1.00
N133   N     0.20896   0.29841   0.15692   0.00000  Uiso   1.00
N134   N     0.92660   0.56327   0.81190   0.00000  Uiso   1.00
N135   N     0.99396   0.98366   0.80766   0.00000  Uiso   1.00
N136   N     0.33385   0.31358   0.10038   0.00000  Uiso   1.00
N137   N     0.05149   0.57845   0.75536   0.00000  Uiso   1.00
N138   N     0.11886   0.99884   0.75112   0.00000  Uiso   1.00
C139   C     0.77262   0.56956   0.06642   0.00000  Uiso   1.00
C140   C     0.75762   0.64975   0.01982   0.00000  Uiso   1.00
C141   C     0.73638   0.64742   0.94943   0.00000  Uiso   1.00
C142   C     0.72539   0.72801   0.91604   0.00000  Uiso   1.00
C143   C     0.70064   0.84035   0.83823   0.00000  Uiso   1.00
C144   C     0.86459   0.58081   0.09753   0.00000  Uiso   1.00
C145   C     0.93327   0.52051   0.09249   0.00000  Uiso   1.00
C146   C     0.01232   0.54306   0.12452   0.00000  Uiso   1.00
C147   C     0.15360   0.54834   0.16740   0.00000  Uiso   1.00
C148   C     0.70818   0.57903   0.12707   0.00000  Uiso   1.00
C149   C     0.64536   0.51723   0.14687   0.00000  Uiso   1.00
C150   C     0.59273   0.53827   0.20378   0.00000  Uiso   1.00
C151   C     0.49116   0.54081   0.29252   0.00000  Uiso   1.00
C152   C     0.79088   0.71681   0.13231   0.00000  Uiso   1.00
C153   C     0.76754   0.72973   0.05561   0.00000  Uiso   1.00
C154   C     0.75658   0.81034   0.02232   0.00000  Uiso   1.00
C155   C     0.73532   0.80814   0.95189   0.00000  Uiso   1.00
C156   C     0.87451   0.66079   0.13331   0.00000  Uiso   1.00
C157   C     0.95347   0.68343   0.16537   0.00000  Uiso   1.00
C158   C     0.02225   0.62318   0.16037   0.00000  Uiso   1.00
C159   C     0.71809   0.65902   0.16285   0.00000  Uiso   1.00
C160   C     0.66555   0.68016   0.21975   0.00000  Uiso   1.00
C161   C     0.60266   0.61840   0.23963   0.00000  Uiso   1.00
H162   H     0.76491   0.50728   0.03857   0.00000  Uiso   1.00
H163   H     0.72872   0.58550   0.92175   0.00000  Uiso   1.00
H164   H     0.92557   0.45861   0.06480   0.00000  Uiso   1.00
H165   H     0.63770   0.45534   0.11916   0.00000  Uiso   1.00
H166   H     0.69300   0.70750   0.80802   0.00000  Uiso   1.00
H167   H     0.10807   0.43992   0.10965   0.00000  Uiso   1.00
H168   H     0.50104   0.43302   0.22430   0.00000  Uiso   1.00
H169   H     0.79860   0.77909   0.16017   0.00000  Uiso   1.00
H170   H     0.76426   0.87223   0.05002   0.00000  Uiso   1.00
H171   H     0.96112   0.74533   0.19306   0.00000  Uiso   1.00
H172   H     0.67325   0.74206   0.24743   0.00000  Uiso   1.00
H173   H     0.72185   0.94022   0.91213   0.00000  Uiso   1.00
H174   H     0.13692   0.67264   0.21376   0.00000  Uiso   1.00
H175   H     0.52989   0.66574   0.32841   0.00000  Uiso   1.00
O176   O     0.68426   0.88023   0.78542   0.00000  Uiso   1.00
O177   O     0.22880   0.52916   0.18116   0.00000  Uiso   1.00
O178   O     0.43239   0.52011   0.33157   0.00000  Uiso   1.00
N179   N     0.70449   0.74949   0.84764   0.00000  Uiso   1.00
N180   N     0.09256   0.49933   0.12964   0.00000  Uiso   1.00
N181   N     0.52505   0.49286   0.23684   0.00000  Uiso   1.00
N182   N     0.72001   0.87471   0.90366   0.00000  Uiso   1.00
N183   N     0.10808   0.62455   0.18566   0.00000  Uiso   1.00
N184   N     0.54057   0.61808   0.29286   0.00000  Uiso   1.00
C185   C     0.28041   0.96779   0.18049   0.00000  Uiso   1.00
C186   C     0.28906   0.88856   0.22908   0.00000  Uiso   1.00
C187   C     0.28790   0.89151   0.30142   0.00000  Uiso   1.00
C188   C     0.29679   0.81176   0.33642   0.00000  Uiso   1.00
C189   C     0.30879   0.70087   0.41736   0.00000  Uiso   1.00
C190   C     0.36207   0.96637   0.13399   0.00000  Uiso   1.00
C191   C     0.42229   0.03475   0.12639   0.00000  Uiso   1.00
C192   C     0.49263   0.02051   0.08134   0.00000  Uiso   1.00
C193   C     0.61795   0.03046   0.01462   0.00000  Uiso   1.00
C194   C     0.20233   0.94780   0.13284   0.00000  Uiso   1.00
C195   C     0.12824   0.00058   0.12424   0.00000  Uiso   1.00
C196   C     0.06409   0.97071   0.07820   0.00000  Uiso   1.00
C197   C     0.94139   0.95182   0.00968   0.00000  Uiso   1.00
C198   C     0.29826   0.82092   0.11400   0.00000  Uiso   1.00
C199   C     0.29876   0.80878   0.19296   0.00000  Uiso   1.00
C200   C     0.30765   0.72901   0.22786   0.00000  Uiso   1.00
C201   C     0.30649   0.73184   0.30024   0.00000  Uiso   1.00
C202   C     0.37177   0.88660   0.09788   0.00000  Uiso   1.00
C203   C     0.44204   0.87226   0.05283   0.00000  Uiso   1.00
C204   C     0.50234   0.94060   0.04516   0.00000  Uiso   1.00
C205   C     0.21202   0.86803   0.09672   0.00000  Uiso   1.00
C206   C     0.14799   0.83808   0.05068   0.00000  Uiso   1.00
C207   C     0.07381   0.89080   0.04202   0.00000  Uiso   1.00
H208   H     0.27287   0.02990   0.20861   0.00000  Uiso   1.00
H209   H     0.28040   0.95326   0.32935   0.00000  Uiso   1.00
H210   H     0.41476   0.09648   0.15434   0.00000  Uiso   1.00
H211   H     0.12076   0.06231   0.15220   0.00000  Uiso   1.00
H212   H     0.29307   0.83310   0.44730   0.00000  Uiso   1.00
H213   H     0.57635   0.13512   0.07826   0.00000  Uiso   1.00
H214   H     0.95639   0.06305   0.07373   0.00000  Uiso   1.00
H215   H     0.30581   0.75882   0.08588   0.00000  Uiso   1.00
H216   H     0.31515   0.66729   0.19990   0.00000  Uiso   1.00
H217   H     0.44951   0.81052   0.02488   0.00000  Uiso   1.00
H218   H     0.15551   0.77634   0.02274   0.00000  Uiso   1.00
H219   H     0.32128   0.60100   0.34223   0.00000  Uiso   1.00
H220   H     0.60456   0.90302   0.97318   0.00000  Uiso   1.00
H221   H     0.98460   0.83095   0.96866   0.00000  Uiso   1.00
O222   O     0.31275   0.66174   0.47198   0.00000  Uiso   1.00
O223   O     0.68440   0.05798   0.98780   0.00000  Uiso   1.00
O224   O     0.87102   0.96343   0.98187   0.00000  Uiso   1.00
N225   N     0.29841   0.79104   0.40692   0.00000  Uiso   1.00
N226   N     0.56327   0.07340   0.06190   0.00000  Uiso   1.00
N227   N     0.98366   0.00604   0.05766   0.00000  Uiso   1.00
N228   N     0.31358   0.66615   0.35038   0.00000  Uiso   1.00
N229   N     0.57845   0.94851   0.00536   0.00000  Uiso   1.00
N230   N     0.99884   0.88114   0.00112   0.00000  Uiso   1.00
C231   C     0.56956   0.22738   0.31642   0.00000  Uiso   1.00
C232   C     0.64975   0.24238   0.26982   0.00000  Uiso   1.00
C233   C     0.64742   0.26362   0.19943   0.00000  Uiso   1.00
C234   C     0.72801   0.27461   0.16604   0.00000  Uiso   1.00
C235   C     0.84035   0.29936   0.08823   0.00000  Uiso   1.00
C236   C     0.58081   0.13541   0.34753   0.00000  Uiso   1.00
C237   C     0.52051   0.06673   0.34249   0.00000  Uiso   1.00
C238   C     0.54306   0.98768   0.37452   0.00000  Uiso   1.00
C239   C     0.54834   0.84640   0.41740   0.00000  Uiso   1.00
C240   C     0.57903   0.29182   0.37707   0.00000  Uiso   1.00
C241   C     0.51723   0.35464   0.39687   0.00000  Uiso   1.00
C242   C     0.53827   0.40727   0.45378   0.00000  Uiso   1.00
C243   C     0.54081   0.50884   0.54252   0.00000  Uiso   1.00
C244   C     0.71681   0.20912   0.38231   0.00000  Uiso   1.00
C245   C     0.72973   0.23246   0.30561   0.00000  Uiso   1.00
C246   C     0.81034   0.24342   0.27232   0.00000  Uiso   1.00
C247   C     0.80814   0.26468   0.20189   0.00000  Uiso   1.00
C248   C     0.66079   0.12549   0.38331   0.00000  Uiso   1.00
C249   C     0.68343   0.04653   0.41537   0.00000  Uiso   1.00
C250   C     0.62318   0.97775   0.41037   0.00000  Uiso   1.00
C251   C     0.65902   0.28191   0.41285   0.00000  Uiso   1.00
C252   C     0.68016   0.33445   0.46975   0.00000  Uiso   1.00
C253   C     0.61840   0.39734   0.48963   0.00000  Uiso   1.00
H254   H     0.50728   0.23509   0.28857   0.00000  Uiso   1.00
H255   H     0.58550   0.27128   0.17175   0.00000  Uiso   1.00
H256   H     0.45861   0.07443   0.31480   0.00000  Uiso   1.00
H257   H     0.45534   0.36230   0.36916   0.00000  Uiso   1.00
H258   H     0.70750   0.30700   0.05802   0.00000  Uiso   1.00
H259   H     0.43992   0.89193   0.35965   0.00000  Uiso   1.00
H260   H     0.43302   0.49896   0.47430   0.00000  Uiso   1.00
H261   H     0.77909   0.20140   0.41017   0.00000  Uiso   1.00
H262   H     0.87223   0.23574   0.30002   0.00000  Uiso   1.00
H263   H     0.74533   0.03888   0.44306   0.00000  Uiso   1.00
H264   H     0.74206   0.32675   0.49743   0.00000  Uiso   1.00
H265   H     0.94022   0.27815   0.16213   0.00000  Uiso   1.00
H266   H     0.67264   0.86308   0.46376   0.00000  Uiso   1.00
H267   H     0.66574   0.47011   0.57841   0.00000  Uiso   1.00
O268   O     0.88023   0.31574   0.03542   0.00000  Uiso   1.00
O269   O     0.52916   0.77120   0.43116   0.00000  Uiso   1.00
O270   O     0.52011   0.56761   0.58157   0.00000  Uiso   1.00
N271   N     0.74949   0.29551   0.09764   0.00000  Uiso   1.00
N272   N     0.49933   0.90744   0.37964   0.00000  Uiso   1.00
N273   N     0.49286   0.47495   0.48684   0.00000  Uiso   1.00
N274   N     0.87471   0.27999   0.15366   0.00000  Uiso   1.00
N275   N     0.62455   0.89192   0.43566   0.00000  Uiso   1.00
N276   N     0.61808   0.45943   0.54286   0.00000  Uiso   1.00
C277   C     0.71959   0.03221   0.68049   0.00000  Uiso   1.00
C278   C     0.71094   0.11144   0.72908   0.00000  Uiso   1.00
C279   C     0.71210   0.10849   0.80142   0.00000  Uiso   1.00
C280   C     0.70321   0.18824   0.83642   0.00000  Uiso   1.00
C281   C     0.69121   0.29913   0.91736   0.00000  Uiso   1.00
C282   C     0.63793   0.03363   0.63399   0.00000  Uiso   1.00
C283   C     0.57771   0.96525   0.62639   0.00000  Uiso   1.00
C284   C     0.50737   0.97949   0.58134   0.00000  Uiso   1.00
C285   C     0.38205   0.96954   0.51462   0.00000  Uiso   1.00
C286   C     0.79767   0.05220   0.63284   0.00000  Uiso   1.00
C287   C     0.87176   0.99942   0.62424   0.00000  Uiso   1.00
C288   C     0.93591   0.02929   0.57820   0.00000  Uiso   1.00
C289   C     0.05861   0.04818   0.50968   0.00000  Uiso   1.00
C290   C     0.70174   0.17908   0.61400   0.00000  Uiso   1.00
C291   C     0.70124   0.19122   0.69296   0.00000  Uiso   1.00
C292   C     0.69235   0.27099   0.72786   0.00000  Uiso   1.00
C293   C     0.69351   0.26816   0.80024   0.00000  Uiso   1.00
C294   C     0.62823   0.11340   0.59788   0.00000  Uiso   1.00
C295   C     0.55796   0.12774   0.55283   0.00000  Uiso   1.00
C296   C     0.49766   0.05940   0.54516   0.00000  Uiso   1.00
C297   C     0.78798   0.13197   0.59672   0.00000  Uiso   1.00
C298   C     0.85201   0.16192   0.55068   0.00000  Uiso   1.00
C299   C     0.92619   0.10920   0.54202   0.00000  Uiso   1.00
H300   H     0.72713   0.97010   0.70861   0.00000  Uiso   1.00
H301   H     0.71960   0.04674   0.82935   0.00000  Uiso   1.00
H302   H     0.58524   0.90352   0.65434   0.00000  Uiso   1.00
H303   H     0.87924   0.93769   0.65220   0.00000  Uiso   1.00
H304   H     0.70693   0.16690   0.94730   0.00000  Uiso   1.00
H305   H     0.42365   0.86488   0.57826   0.00000  Uiso   1.00
H306   H     0.04361   0.93695   0.57373   0.00000  Uiso   1.00
H307   H     0.69419   0.24118   0.58588   0.00000  Uiso   1.00
H308   H     0.68485   0.33271   0.69990   0.00000  Uiso   1.00
H309   H     0.55049   0.18948   0.52488   0.00000  Uiso   1.00
H310   H     0.84449   0.22366   0.52274   0.00000  Uiso   1.00
H311   H     0.67872   0.39900   0.84223   0.00000  Uiso   1.00
H312   H     0.39544   0.09698   0.47318   0.00000  Uiso   1.00
H313   H     0.01540   0.16905   0.46866   0.00000  Uiso   1.00
O314   O     0.68725   0.33826   0.97198   0.00000  Uiso   1.00
O315   O     0.31560   0.94202   0.48780   0.00000  Uiso   1.00
O316   O     0.12898   0.03657   0.48187   0.00000  Uiso   1.00
N317   N     0.70159   0.20896   0.90692   0.00000  Uiso   1.00
N318   N     0.43673   0.92660   0.56190   0.00000  Uiso   1.00
N319   N     0.01634   0.99396   0.55766   0.00000  Uiso   1.00
N320   N     0.68642   0.33385   0.85038   0.00000  Uiso   1.00
N321   N     0.42155   0.05149   0.50536   0.00000  Uiso   1.00
N322   N     0.00116   0.11886   0.50112   0.00000  Uiso   1.00
C323   C     0.43044   0.77262   0.81642   0.00000  Uiso   1.00
C324   C     0.35025   0.75762   0.76982   0.00000  Uiso   1.00
C325   C     0.35258   0.73638   0.69943   0.00000  Uiso   1.00
C326   C     0.27199   0.72539   0.66604   0.00000  Uiso   1.00
C327   C     0.15965   0.70064   0.58823   0.00000  Uiso   1.00
C328   C     0.41919   0.86459   0.84753   0.00000  Uiso   1.00
C329   C     0.47949   0.93327   0.84249   0.00000  Uiso   1.00
C330   C     0.45694   0.01232   0.87452   0.00000  Uiso   1.00
C331   C     0.45166   0.15360   0.91740   0.00000  Uiso   1.00
C332   C     0.42097   0.70818   0.87707   0.00000  Uiso   1.00
C333   C     0.48277   0.64536   0.89687   0.00000  Uiso   1.00
C334   C     0.46173   0.59273   0.95378   0.00000  Uiso   1.00
C335   C     0.45919   0.49116   0.04252   0.00000  Uiso   1.00
C336   C     0.28319   0.79088   0.88230   0.00000  Uiso   1.00
C337   C     0.27027   0.76754   0.80561   0.00000  Uiso   1.00
C338   C     0.18966   0.75658   0.77232   0.00000  Uiso   1.00
C339   C     0.19186   0.73532   0.70189   0.00000  Uiso   1.00
C340   C     0.33921   0.87451   0.88331   0.00000  Uiso   1.00
C341   C     0.31657   0.95347   0.91537   0.00000  Uiso   1.00
C342   C     0.37682   0.02225   0.91037   0.00000  Uiso   1.00
C343   C     0.34098   0.71809   0.91285   0.00000  Uiso   1.00
C344   C     0.31984   0.66555   0.96975   0.00000  Uiso   1.00
C345   C     0.38160   0.60266   0.98963   0.00000  Uiso   1.00
H346   H     0.49272   0.76491   0.78857   0.00000  Uiso   1.00
H347   H     0.41450   0.72872   0.67175   0.00000  Uiso   1.00
H348   H     0.54139   0.92557   0.81480   0.00000  Uiso   1.00
H349   H     0.54466   0.63770   0.86916   0.00000  Uiso   1.00
H350   H     0.29250   0.69300   0.55802   0.00000  Uiso   1.00
H351   H     0.56008   0.10807   0.85965   0.00000  Uiso   1.00
H352   H     0.56698   0.50104   0.97430   0.00000  Uiso   1.00
H353   H     0.22091   0.79860   0.91017   0.00000  Uiso   1.00
H354   H     0.12777   0.76426   0.80002   0.00000  Uiso   1.00
H355   H     0.25467   0.96112   0.94306   0.00000  Uiso   1.00
H356   H     0.25794   0.67325   0.99743   0.00000  Uiso   1.00
H357   H     0.05978   0.72185   0.66213   0.00000  Uiso   1.00
H358   H     0.32736   0.13692   0.96376   0.00000  Uiso   1.00
H359   H     0.33426   0.52989   0.07841   0.00000  Uiso   1.00
O360   O     0.11977   0.68426   0.53542   0.00000  Uiso   1.00
O361   O     0.47084   0.22880   0.93116   0.00000  Uiso   1.00
O362   O     0.47989   0.43239   0.08157   0.00000  Uiso   1.00
N363   N     0.25051   0.70449   0.59764   0.00000  Uiso   1.00
N364   N     0.50067   0.09256   0.87964   0.00000  Uiso   1.00
N365   N     0.50714   0.52505   0.98684   0.00000  Uiso   1.00
N366   N     0.12529   0.72001   0.65366   0.00000  Uiso   1.00
N367   N     0.37545   0.10808   0.93566   0.00000  Uiso   1.00
N368   N     0.38192   0.54057   0.04286   0.00000  Uiso   1.00
