data_job_02156
_audit_creation_date              2018-12-19
_audit_creation_method            'Materials Studio'
_symmetry_space_group_name_H-M    'P1'
_symmetry_Int_Tables_number       1
_symmetry_cell_setting            triclinic
loop_
_symmetry_equiv_pos_as_xyz
  x,y,z
_cell_length_a                    12.4161
_cell_length_b                    16.4630
_cell_length_c                    13.8409
_cell_angle_alpha                 90.0000
_cell_angle_beta                  90.0000
_cell_angle_gamma                 90.0000
loop_
_atom_site_label
_atom_site_type_symbol
_atom_site_fract_x
_atom_site_fract_y
_atom_site_fract_z
_atom_site_U_iso_or_equiv
_atom_site_adp_type
_atom_site_occupancy
C1     C     0.93051   0.25811   0.38396   0.00000  Uiso   1.00
C2     C     0.84515   0.27075   0.30618   0.00000  Uiso   1.00
C3     C     0.74587   0.30783   0.31943   0.00000  Uiso   1.00
C4     C     0.67916   0.31351   0.23921   0.00000  Uiso   1.00
C5     C     0.54180   0.33772   0.13217   0.00000  Uiso   1.00
C6     C     0.95335   0.16711   0.38596   0.00000  Uiso   1.00
C7     C     0.94506   0.11706   0.46630   0.00000  Uiso   1.00
C8     C     0.96945   0.03549   0.45324   0.00000  Uiso   1.00
C9     C     0.00015   0.89881   0.47008   0.00000  Uiso   1.00
C10    C     0.03281   0.29817   0.34595   0.00000  Uiso   1.00
C11    C     0.09135   0.35829   0.39266   0.00000  Uiso   1.00
C12    C     0.18266   0.38705   0.34592   0.00000  Uiso   1.00
C13    C     0.33674   0.45385   0.30063   0.00000  Uiso   1.00
C14    C     0.98858   0.20224   0.21791   0.00000  Uiso   1.00
C15    C     0.87670   0.24040   0.21599   0.00000  Uiso   1.00
C16    C     0.81012   0.24603   0.13572   0.00000  Uiso   1.00
C17    C     0.71076   0.28311   0.14886   0.00000  Uiso   1.00
C18    C     0.98490   0.13677   0.29578   0.00000  Uiso   1.00
C19    C     0.00931   0.05525   0.28259   0.00000  Uiso   1.00
C20    C     0.00105   0.00509   0.36289   0.00000  Uiso   1.00
C21    C     0.06436   0.26782   0.25576   0.00000  Uiso   1.00
C22    C     0.15560   0.29649   0.20894   0.00000  Uiso   1.00
C23    C     0.21426   0.35665   0.25557   0.00000  Uiso   1.00
H24    H     0.90595   0.28173   0.45418   0.00000  Uiso   1.00
H25    H     0.72148   0.33130   0.38925   0.00000  Uiso   1.00
H26    H     0.92065   0.14056   0.53609   0.00000  Uiso   1.00
H27    H     0.06692   0.38176   0.46245   0.00000  Uiso   1.00
H28    H     0.53086   0.37286   0.27749   0.00000  Uiso   1.00
H29    H     0.95086   0.97068   0.58713   0.00000  Uiso   1.00
H30    H     0.25929   0.47929   0.43185   0.00000  Uiso   1.00
H31    H     0.01315   0.17862   0.14769   0.00000  Uiso   1.00
H32    H     0.83456   0.22254   0.06594   0.00000  Uiso   1.00
H33    H     0.03373   0.03179   0.21279   0.00000  Uiso   1.00
H34    H     0.17999   0.27299   0.13915   0.00000  Uiso   1.00
H35    H     0.62263   0.28458   0.01509   0.00000  Uiso   1.00
H36    H     0.04264   0.88239   0.32473   0.00000  Uiso   1.00
H37    H     0.35106   0.39101   0.16945   0.00000  Uiso   1.00
O38    O     0.45732   0.35945   0.09805   0.00000  Uiso   1.00
O39    O     0.00836   0.83180   0.50429   0.00000  Uiso   1.00
O40    O     0.41300   0.49909   0.30056   0.00000  Uiso   1.00
N41    N     0.57698   0.34607   0.22695   0.00000  Uiso   1.00
N42    N     0.96963   0.97005   0.51644   0.00000  Uiso   1.00
N43    N     0.25800   0.44554   0.37128   0.00000  Uiso   1.00
N44    N     0.62636   0.29857   0.08575   0.00000  Uiso   1.00
N45    N     0.01902   0.92255   0.37524   0.00000  Uiso   1.00
N46    N     0.30739   0.39804   0.23008   0.00000  Uiso   1.00
C47    C     0.56949   0.74189   0.88396   0.00000  Uiso   1.00
C48    C     0.65485   0.72925   0.80618   0.00000  Uiso   1.00
C49    C     0.75413   0.69217   0.81943   0.00000  Uiso   1.00
C50    C     0.82084   0.68649   0.73921   0.00000  Uiso   1.00
C51    C     0.95820   0.66228   0.63217   0.00000  Uiso   1.00
C52    C     0.54665   0.83289   0.88596   0.00000  Uiso   1.00
C53    C     0.55494   0.88294   0.96630   0.00000  Uiso   1.00
C54    C     0.53055   0.96451   0.95324   0.00000  Uiso   1.00
C55    C     0.49985   0.10119   0.97008   0.00000  Uiso   1.00
C56    C     0.46719   0.70183   0.84595   0.00000  Uiso   1.00
C57    C     0.40865   0.64171   0.89266   0.00000  Uiso   1.00
C58    C     0.31734   0.61295   0.84592   0.00000  Uiso   1.00
C59    C     0.16326   0.54615   0.80063   0.00000  Uiso   1.00
C60    C     0.51142   0.79776   0.71791   0.00000  Uiso   1.00
C61    C     0.62330   0.75960   0.71599   0.00000  Uiso   1.00
C62    C     0.68988   0.75397   0.63572   0.00000  Uiso   1.00
C63    C     0.78924   0.71689   0.64886   0.00000  Uiso   1.00
C64    C     0.51510   0.86323   0.79578   0.00000  Uiso   1.00
C65    C     0.49069   0.94475   0.78259   0.00000  Uiso   1.00
C66    C     0.49895   0.99491   0.86289   0.00000  Uiso   1.00
C67    C     0.43564   0.73218   0.75576   0.00000  Uiso   1.00
C68    C     0.34440   0.70351   0.70894   0.00000  Uiso   1.00
C69    C     0.28574   0.64335   0.75557   0.00000  Uiso   1.00
H70    H     0.59405   0.71827   0.95418   0.00000  Uiso   1.00
H71    H     0.77852   0.66870   0.88925   0.00000  Uiso   1.00
H72    H     0.57935   0.85944   0.03609   0.00000  Uiso   1.00
H73    H     0.43308   0.61824   0.96245   0.00000  Uiso   1.00
H74    H     0.96914   0.62714   0.77749   0.00000  Uiso   1.00
H75    H     0.54914   0.02932   0.08713   0.00000  Uiso   1.00
H76    H     0.24071   0.52071   0.93185   0.00000  Uiso   1.00
H77    H     0.48685   0.82138   0.64769   0.00000  Uiso   1.00
H78    H     0.66544   0.77746   0.56594   0.00000  Uiso   1.00
H79    H     0.46627   0.96821   0.71279   0.00000  Uiso   1.00
H80    H     0.32001   0.72701   0.63915   0.00000  Uiso   1.00
H81    H     0.87737   0.71542   0.51509   0.00000  Uiso   1.00
H82    H     0.45736   0.11761   0.82473   0.00000  Uiso   1.00
H83    H     0.14894   0.60899   0.66945   0.00000  Uiso   1.00
O84    O     0.04268   0.64055   0.59805   0.00000  Uiso   1.00
O85    O     0.49164   0.16820   0.00429   0.00000  Uiso   1.00
O86    O     0.08700   0.50091   0.80056   0.00000  Uiso   1.00
N87    N     0.92302   0.65393   0.72695   0.00000  Uiso   1.00
N88    N     0.53037   0.02995   0.01644   0.00000  Uiso   1.00
N89    N     0.24200   0.55446   0.87128   0.00000  Uiso   1.00
N90    N     0.87364   0.70143   0.58575   0.00000  Uiso   1.00
N91    N     0.48098   0.07745   0.87524   0.00000  Uiso   1.00
N92    N     0.19261   0.60196   0.73008   0.00000  Uiso   1.00
C93    C     0.06949   0.75811   0.11604   0.00000  Uiso   1.00
C94    C     0.15485   0.77075   0.19382   0.00000  Uiso   1.00
C95    C     0.25413   0.80783   0.18057   0.00000  Uiso   1.00
C96    C     0.32084   0.81351   0.26079   0.00000  Uiso   1.00
C97    C     0.45820   0.83772   0.36783   0.00000  Uiso   1.00
C98    C     0.04665   0.66711   0.11404   0.00000  Uiso   1.00
C99    C     0.05494   0.61706   0.03370   0.00000  Uiso   1.00
C100   C     0.03055   0.53549   0.04676   0.00000  Uiso   1.00
C101   C     0.99985   0.39881   0.02992   0.00000  Uiso   1.00
C102   C     0.96719   0.79817   0.15405   0.00000  Uiso   1.00
C103   C     0.90865   0.85829   0.10734   0.00000  Uiso   1.00
C104   C     0.81734   0.88705   0.15408   0.00000  Uiso   1.00
C105   C     0.66326   0.95385   0.19937   0.00000  Uiso   1.00
C106   C     0.01142   0.70224   0.28209   0.00000  Uiso   1.00
C107   C     0.12330   0.74040   0.28401   0.00000  Uiso   1.00
C108   C     0.18988   0.74603   0.36428   0.00000  Uiso   1.00
C109   C     0.28924   0.78311   0.35114   0.00000  Uiso   1.00
C110   C     0.01510   0.63677   0.20422   0.00000  Uiso   1.00
C111   C     0.99069   0.55525   0.21741   0.00000  Uiso   1.00
C112   C     0.99895   0.50509   0.13711   0.00000  Uiso   1.00
C113   C     0.93564   0.76782   0.24424   0.00000  Uiso   1.00
C114   C     0.84440   0.79649   0.29106   0.00000  Uiso   1.00
C115   C     0.78574   0.85665   0.24443   0.00000  Uiso   1.00
H116   H     0.09405   0.78173   0.04582   0.00000  Uiso   1.00
H117   H     0.27852   0.83130   0.11075   0.00000  Uiso   1.00
H118   H     0.07935   0.64056   0.96391   0.00000  Uiso   1.00
H119   H     0.93308   0.88176   0.03755   0.00000  Uiso   1.00
H120   H     0.46914   0.87286   0.22251   0.00000  Uiso   1.00
H121   H     0.04914   0.47068   0.91287   0.00000  Uiso   1.00
H122   H     0.74071   0.97929   0.06815   0.00000  Uiso   1.00
H123   H     0.98685   0.67862   0.35231   0.00000  Uiso   1.00
H124   H     0.16544   0.72254   0.43406   0.00000  Uiso   1.00
H125   H     0.96627   0.53179   0.28721   0.00000  Uiso   1.00
H126   H     0.82001   0.77299   0.36085   0.00000  Uiso   1.00
H127   H     0.37737   0.78458   0.48491   0.00000  Uiso   1.00
H128   H     0.95736   0.38239   0.17527   0.00000  Uiso   1.00
H129   H     0.64894   0.89101   0.33055   0.00000  Uiso   1.00
O130   O     0.54268   0.85945   0.40195   0.00000  Uiso   1.00
O131   O     0.99164   0.33180   0.99571   0.00000  Uiso   1.00
O132   O     0.58700   0.99909   0.19944   0.00000  Uiso   1.00
N133   N     0.42302   0.84607   0.27305   0.00000  Uiso   1.00
N134   N     0.03037   0.47005   0.98356   0.00000  Uiso   1.00
N135   N     0.74200   0.94554   0.12872   0.00000  Uiso   1.00
N136   N     0.37364   0.79857   0.41425   0.00000  Uiso   1.00
N137   N     0.98098   0.42255   0.12476   0.00000  Uiso   1.00
N138   N     0.69261   0.89804   0.26992   0.00000  Uiso   1.00
C139   C     0.43051   0.24189   0.61604   0.00000  Uiso   1.00
C140   C     0.34515   0.22925   0.69382   0.00000  Uiso   1.00
C141   C     0.24587   0.19217   0.68057   0.00000  Uiso   1.00
C142   C     0.17916   0.18649   0.76079   0.00000  Uiso   1.00
C143   C     0.04180   0.16228   0.86783   0.00000  Uiso   1.00
C144   C     0.45335   0.33289   0.61404   0.00000  Uiso   1.00
C145   C     0.44506   0.38294   0.53370   0.00000  Uiso   1.00
C146   C     0.46945   0.46451   0.54676   0.00000  Uiso   1.00
C147   C     0.50015   0.60119   0.52992   0.00000  Uiso   1.00
C148   C     0.53281   0.20183   0.65405   0.00000  Uiso   1.00
C149   C     0.59135   0.14171   0.60734   0.00000  Uiso   1.00
C150   C     0.68266   0.11295   0.65408   0.00000  Uiso   1.00
C151   C     0.83674   0.04615   0.69937   0.00000  Uiso   1.00
C152   C     0.48858   0.29776   0.78209   0.00000  Uiso   1.00
C153   C     0.37670   0.25960   0.78401   0.00000  Uiso   1.00
C154   C     0.31012   0.25397   0.86428   0.00000  Uiso   1.00
C155   C     0.21076   0.21689   0.85114   0.00000  Uiso   1.00
C156   C     0.48490   0.36323   0.70422   0.00000  Uiso   1.00
C157   C     0.50931   0.44475   0.71741   0.00000  Uiso   1.00
C158   C     0.50105   0.49491   0.63711   0.00000  Uiso   1.00
C159   C     0.56436   0.23218   0.74424   0.00000  Uiso   1.00
C160   C     0.65560   0.20351   0.79106   0.00000  Uiso   1.00
C161   C     0.71426   0.14335   0.74443   0.00000  Uiso   1.00
H162   H     0.40595   0.21827   0.54582   0.00000  Uiso   1.00
H163   H     0.22148   0.16870   0.61075   0.00000  Uiso   1.00
H164   H     0.42065   0.35944   0.46391   0.00000  Uiso   1.00
H165   H     0.56692   0.11824   0.53755   0.00000  Uiso   1.00
H166   H     0.03086   0.12714   0.72251   0.00000  Uiso   1.00
H167   H     0.45086   0.52932   0.41287   0.00000  Uiso   1.00
H168   H     0.75929   0.02071   0.56815   0.00000  Uiso   1.00
H169   H     0.51315   0.32138   0.85231   0.00000  Uiso   1.00
H170   H     0.33456   0.27746   0.93406   0.00000  Uiso   1.00
H171   H     0.53373   0.46821   0.78721   0.00000  Uiso   1.00
H172   H     0.67999   0.22701   0.86085   0.00000  Uiso   1.00
H173   H     0.12263   0.21542   0.98491   0.00000  Uiso   1.00
H174   H     0.54264   0.61761   0.67527   0.00000  Uiso   1.00
H175   H     0.85106   0.10899   0.83055   0.00000  Uiso   1.00
O176   O     0.95732   0.14055   0.90195   0.00000  Uiso   1.00
O177   O     0.50836   0.66820   0.49571   0.00000  Uiso   1.00
O178   O     0.91300   0.00091   0.69944   0.00000  Uiso   1.00
N179   N     0.07698   0.15393   0.77305   0.00000  Uiso   1.00
N180   N     0.46963   0.52995   0.48356   0.00000  Uiso   1.00
N181   N     0.75800   0.05446   0.62872   0.00000  Uiso   1.00
N182   N     0.12636   0.20143   0.91425   0.00000  Uiso   1.00
N183   N     0.51902   0.57745   0.62476   0.00000  Uiso   1.00
N184   N     0.80739   0.10196   0.76992   0.00000  Uiso   1.00
