data_job_02436
_audit_creation_date              2018-12-19
_audit_creation_method            'Materials Studio'
_symmetry_space_group_name_H-M    'P1'
_symmetry_Int_Tables_number       1
_symmetry_cell_setting            triclinic
loop_
_symmetry_equiv_pos_as_xyz
  x,y,z
_cell_length_a                    12.2923
_cell_length_b                    27.0801
_cell_length_c                    21.6835
_cell_angle_alpha                 90.0000
_cell_angle_beta                  98.2227
_cell_angle_gamma                 90.0000
loop_
_atom_site_label
_atom_site_type_symbol
_atom_site_fract_x
_atom_site_fract_y
_atom_site_fract_z
_atom_site_U_iso_or_equiv
_atom_site_adp_type
_atom_site_occupancy
C1     C     0.73777   0.15119   0.61435   0.00000  Uiso   1.00
C2     C     0.74893   0.12027   0.67370   0.00000  Uiso   1.00
C3     C     0.78955   0.13676   0.73314   0.00000  Uiso   1.00
C4     C     0.79308   0.10277   0.78132   0.00000  Uiso   1.00
C5     C     0.81581   0.06218   0.87514   0.00000  Uiso   1.00
C6     C     0.61718   0.14799   0.58581   0.00000  Uiso   1.00
C7     C     0.54703   0.18779   0.57135   0.00000  Uiso   1.00
C8     C     0.43965   0.17713   0.54553   0.00000  Uiso   1.00
C9     C     0.25785   0.17958   0.50286   0.00000  Uiso   1.00
C10    C     0.80197   0.12384   0.56975   0.00000  Uiso   1.00
C11    C     0.88718   0.14334   0.54176   0.00000  Uiso   1.00
C12    C     0.93536   0.11235   0.50240   0.00000  Uiso   1.00
C13    C     0.04048   0.07730   0.43478   0.00000  Uiso   1.00
C14    C     0.67179   0.06149   0.59421   0.00000  Uiso   1.00
C15    C     0.71309   0.07155   0.66276   0.00000  Uiso   1.00
C16    C     0.71656   0.03752   0.71086   0.00000  Uiso   1.00
C17    C     0.75718   0.05396   0.77036   0.00000  Uiso   1.00
C18    C     0.58134   0.09927   0.57487   0.00000  Uiso   1.00
C19    C     0.47403   0.08855   0.54907   0.00000  Uiso   1.00
C20    C     0.40374   0.12832   0.53457   0.00000  Uiso   1.00
C21    C     0.76613   0.07512   0.55881   0.00000  Uiso   1.00
C22    C     0.81418   0.04410   0.51948   0.00000  Uiso   1.00
C23    C     0.89945   0.06354   0.49144   0.00000  Uiso   1.00
H24    H     0.76566   0.18912   0.62287   0.00000  Uiso   1.00
H25    H     0.81727   0.17447   0.74159   0.00000  Uiso   1.00
H26    H     0.57479   0.22549   0.57982   0.00000  Uiso   1.00
H27    H     0.91489   0.18105   0.55024   0.00000  Uiso   1.00
H28    H     0.85865   0.13675   0.86839   0.00000  Uiso   1.00
H29    H     0.34738   0.24433   0.52727   0.00000  Uiso   1.00
H30    H     0.06453   0.15060   0.46488   0.00000  Uiso   1.00
H31    H     0.64388   0.02356   0.58569   0.00000  Uiso   1.00
H32    H     0.68882   0.99982   0.70238   0.00000  Uiso   1.00
H33    H     0.44633   0.05084   0.54060   0.00000  Uiso   1.00
H34    H     0.78643   0.00640   0.51102   0.00000  Uiso   1.00
H35    H     0.75438   0.99499   0.83657   0.00000  Uiso   1.00
H36    H     0.24311   0.10257   0.49544   0.00000  Uiso   1.00
H37    H     0.96027   0.00885   0.43306   0.00000  Uiso   1.00
O38    O     0.83823   0.05325   0.92991   0.00000  Uiso   1.00
O39    O     0.16748   0.19439   0.48236   0.00000  Uiso   1.00
O40    O     0.10837   0.07143   0.40052   0.00000  Uiso   1.00
N41    N     0.82796   0.10664   0.84489   0.00000  Uiso   1.00
N42    N     0.34995   0.20722   0.52596   0.00000  Uiso   1.00
N43    N     0.02041   0.11960   0.46763   0.00000  Uiso   1.00
N44    N     0.77186   0.03036   0.82776   0.00000  Uiso   1.00
N45    N     0.29385   0.13094   0.50884   0.00000  Uiso   1.00
N46    N     0.96431   0.04333   0.45050   0.00000  Uiso   1.00
C47    C     0.23777   0.65119   0.61435   0.00000  Uiso   1.00
C48    C     0.24893   0.62027   0.67370   0.00000  Uiso   1.00
C49    C     0.28955   0.63676   0.73314   0.00000  Uiso   1.00
C50    C     0.29308   0.60277   0.78132   0.00000  Uiso   1.00
C51    C     0.31581   0.56218   0.87514   0.00000  Uiso   1.00
C52    C     0.11718   0.64799   0.58581   0.00000  Uiso   1.00
C53    C     0.04703   0.68779   0.57135   0.00000  Uiso   1.00
C54    C     0.93965   0.67713   0.54553   0.00000  Uiso   1.00
C55    C     0.75785   0.67958   0.50286   0.00000  Uiso   1.00
C56    C     0.30197   0.62384   0.56975   0.00000  Uiso   1.00
C57    C     0.38718   0.64334   0.54176   0.00000  Uiso   1.00
C58    C     0.43536   0.61235   0.50240   0.00000  Uiso   1.00
C59    C     0.54048   0.57730   0.43478   0.00000  Uiso   1.00
C60    C     0.17179   0.56149   0.59421   0.00000  Uiso   1.00
C61    C     0.21309   0.57155   0.66276   0.00000  Uiso   1.00
C62    C     0.21656   0.53752   0.71086   0.00000  Uiso   1.00
C63    C     0.25718   0.55396   0.77036   0.00000  Uiso   1.00
C64    C     0.08134   0.59927   0.57487   0.00000  Uiso   1.00
C65    C     0.97403   0.58855   0.54907   0.00000  Uiso   1.00
C66    C     0.90374   0.62832   0.53457   0.00000  Uiso   1.00
C67    C     0.26613   0.57512   0.55881   0.00000  Uiso   1.00
C68    C     0.31418   0.54410   0.51948   0.00000  Uiso   1.00
C69    C     0.39945   0.56354   0.49144   0.00000  Uiso   1.00
H70    H     0.26566   0.68912   0.62287   0.00000  Uiso   1.00
H71    H     0.31727   0.67447   0.74159   0.00000  Uiso   1.00
H72    H     0.07479   0.72549   0.57982   0.00000  Uiso   1.00
H73    H     0.41489   0.68105   0.55024   0.00000  Uiso   1.00
H74    H     0.35865   0.63675   0.86839   0.00000  Uiso   1.00
H75    H     0.84738   0.74433   0.52727   0.00000  Uiso   1.00
H76    H     0.56453   0.65060   0.46488   0.00000  Uiso   1.00
H77    H     0.14388   0.52356   0.58569   0.00000  Uiso   1.00
H78    H     0.18882   0.49982   0.70238   0.00000  Uiso   1.00
H79    H     0.94633   0.55084   0.54060   0.00000  Uiso   1.00
H80    H     0.28643   0.50640   0.51102   0.00000  Uiso   1.00
H81    H     0.25438   0.49499   0.83657   0.00000  Uiso   1.00
H82    H     0.74311   0.60257   0.49544   0.00000  Uiso   1.00
H83    H     0.46027   0.50885   0.43306   0.00000  Uiso   1.00
O84    O     0.33823   0.55325   0.92991   0.00000  Uiso   1.00
O85    O     0.66748   0.69439   0.48236   0.00000  Uiso   1.00
O86    O     0.60837   0.57143   0.40052   0.00000  Uiso   1.00
N87    N     0.32796   0.60664   0.84489   0.00000  Uiso   1.00
N88    N     0.84995   0.70722   0.52596   0.00000  Uiso   1.00
N89    N     0.52041   0.61960   0.46763   0.00000  Uiso   1.00
N90    N     0.27186   0.53036   0.82776   0.00000  Uiso   1.00
N91    N     0.79385   0.63094   0.50884   0.00000  Uiso   1.00
N92    N     0.46431   0.54333   0.45050   0.00000  Uiso   1.00
C93    C     0.26223   0.15119   0.88565   0.00000  Uiso   1.00
C94    C     0.25107   0.12027   0.82630   0.00000  Uiso   1.00
C95    C     0.21045   0.13676   0.76686   0.00000  Uiso   1.00
C96    C     0.20692   0.10277   0.71868   0.00000  Uiso   1.00
C97    C     0.18419   0.06218   0.62486   0.00000  Uiso   1.00
C98    C     0.38282   0.14799   0.91419   0.00000  Uiso   1.00
C99    C     0.45297   0.18779   0.92865   0.00000  Uiso   1.00
C100   C     0.56035   0.17713   0.95447   0.00000  Uiso   1.00
C101   C     0.74215   0.17958   0.99714   0.00000  Uiso   1.00
C102   C     0.19803   0.12384   0.93025   0.00000  Uiso   1.00
C103   C     0.11282   0.14334   0.95824   0.00000  Uiso   1.00
C104   C     0.06464   0.11235   0.99760   0.00000  Uiso   1.00
C105   C     0.95952   0.07730   0.06522   0.00000  Uiso   1.00
C106   C     0.32821   0.06149   0.90579   0.00000  Uiso   1.00
C107   C     0.28691   0.07155   0.83724   0.00000  Uiso   1.00
C108   C     0.28344   0.03752   0.78914   0.00000  Uiso   1.00
C109   C     0.24282   0.05396   0.72964   0.00000  Uiso   1.00
C110   C     0.41866   0.09927   0.92513   0.00000  Uiso   1.00
C111   C     0.52597   0.08855   0.95093   0.00000  Uiso   1.00
C112   C     0.59626   0.12832   0.96543   0.00000  Uiso   1.00
C113   C     0.23387   0.07512   0.94119   0.00000  Uiso   1.00
C114   C     0.18582   0.04410   0.98052   0.00000  Uiso   1.00
C115   C     0.10055   0.06354   0.00856   0.00000  Uiso   1.00
H116   H     0.23434   0.18912   0.87713   0.00000  Uiso   1.00
H117   H     0.18273   0.17447   0.75841   0.00000  Uiso   1.00
H118   H     0.42521   0.22549   0.92018   0.00000  Uiso   1.00
H119   H     0.08511   0.18105   0.94976   0.00000  Uiso   1.00
H120   H     0.14135   0.13675   0.63161   0.00000  Uiso   1.00
H121   H     0.65262   0.24433   0.97273   0.00000  Uiso   1.00
H122   H     0.93547   0.15060   0.03512   0.00000  Uiso   1.00
H123   H     0.35612   0.02356   0.91431   0.00000  Uiso   1.00
H124   H     0.31118   0.99982   0.79762   0.00000  Uiso   1.00
H125   H     0.55367   0.05084   0.95940   0.00000  Uiso   1.00
H126   H     0.21357   0.00640   0.98898   0.00000  Uiso   1.00
H127   H     0.24562   0.99499   0.66343   0.00000  Uiso   1.00
H128   H     0.75689   0.10257   0.00456   0.00000  Uiso   1.00
H129   H     0.03973   0.00885   0.06694   0.00000  Uiso   1.00
O130   O     0.16177   0.05325   0.57009   0.00000  Uiso   1.00
O131   O     0.83252   0.19439   0.01764   0.00000  Uiso   1.00
O132   O     0.89163   0.07143   0.09948   0.00000  Uiso   1.00
N133   N     0.17204   0.10664   0.65511   0.00000  Uiso   1.00
N134   N     0.65005   0.20722   0.97404   0.00000  Uiso   1.00
N135   N     0.97959   0.11960   0.03237   0.00000  Uiso   1.00
N136   N     0.22814   0.03036   0.67224   0.00000  Uiso   1.00
N137   N     0.70615   0.13094   0.99116   0.00000  Uiso   1.00
N138   N     0.03569   0.04333   0.04950   0.00000  Uiso   1.00
C139   C     0.76223   0.65119   0.88565   0.00000  Uiso   1.00
C140   C     0.75107   0.62027   0.82630   0.00000  Uiso   1.00
C141   C     0.71045   0.63676   0.76686   0.00000  Uiso   1.00
C142   C     0.70692   0.60277   0.71868   0.00000  Uiso   1.00
C143   C     0.68419   0.56218   0.62486   0.00000  Uiso   1.00
C144   C     0.88282   0.64799   0.91419   0.00000  Uiso   1.00
C145   C     0.95297   0.68779   0.92865   0.00000  Uiso   1.00
C146   C     0.06035   0.67713   0.95447   0.00000  Uiso   1.00
C147   C     0.24215   0.67958   0.99714   0.00000  Uiso   1.00
C148   C     0.69803   0.62384   0.93025   0.00000  Uiso   1.00
C149   C     0.61282   0.64334   0.95824   0.00000  Uiso   1.00
C150   C     0.56464   0.61235   0.99760   0.00000  Uiso   1.00
C151   C     0.45952   0.57730   0.06522   0.00000  Uiso   1.00
C152   C     0.82821   0.56149   0.90579   0.00000  Uiso   1.00
C153   C     0.78691   0.57155   0.83724   0.00000  Uiso   1.00
C154   C     0.78344   0.53752   0.78914   0.00000  Uiso   1.00
C155   C     0.74282   0.55396   0.72964   0.00000  Uiso   1.00
C156   C     0.91866   0.59927   0.92513   0.00000  Uiso   1.00
C157   C     0.02597   0.58855   0.95093   0.00000  Uiso   1.00
C158   C     0.09626   0.62832   0.96543   0.00000  Uiso   1.00
C159   C     0.73387   0.57512   0.94119   0.00000  Uiso   1.00
C160   C     0.68582   0.54410   0.98052   0.00000  Uiso   1.00
C161   C     0.60055   0.56354   0.00856   0.00000  Uiso   1.00
H162   H     0.73434   0.68912   0.87713   0.00000  Uiso   1.00
H163   H     0.68273   0.67447   0.75841   0.00000  Uiso   1.00
H164   H     0.92521   0.72549   0.92018   0.00000  Uiso   1.00
H165   H     0.58511   0.68105   0.94976   0.00000  Uiso   1.00
H166   H     0.64135   0.63675   0.63161   0.00000  Uiso   1.00
H167   H     0.15262   0.74433   0.97273   0.00000  Uiso   1.00
H168   H     0.43547   0.65060   0.03512   0.00000  Uiso   1.00
H169   H     0.85612   0.52356   0.91431   0.00000  Uiso   1.00
H170   H     0.81118   0.49982   0.79762   0.00000  Uiso   1.00
H171   H     0.05367   0.55084   0.95940   0.00000  Uiso   1.00
H172   H     0.71357   0.50640   0.98898   0.00000  Uiso   1.00
H173   H     0.74562   0.49499   0.66343   0.00000  Uiso   1.00
H174   H     0.25689   0.60257   0.00456   0.00000  Uiso   1.00
H175   H     0.53973   0.50885   0.06694   0.00000  Uiso   1.00
O176   O     0.66177   0.55325   0.57009   0.00000  Uiso   1.00
O177   O     0.33252   0.69439   0.01764   0.00000  Uiso   1.00
O178   O     0.39163   0.57143   0.09948   0.00000  Uiso   1.00
N179   N     0.67204   0.60664   0.65511   0.00000  Uiso   1.00
N180   N     0.15005   0.70722   0.97404   0.00000  Uiso   1.00
N181   N     0.47959   0.61960   0.03237   0.00000  Uiso   1.00
N182   N     0.72814   0.53036   0.67224   0.00000  Uiso   1.00
N183   N     0.20615   0.63094   0.99116   0.00000  Uiso   1.00
N184   N     0.53569   0.54333   0.04950   0.00000  Uiso   1.00
C185   C     0.26223   0.84881   0.38565   0.00000  Uiso   1.00
C186   C     0.25107   0.87973   0.32630   0.00000  Uiso   1.00
C187   C     0.21045   0.86324   0.26686   0.00000  Uiso   1.00
C188   C     0.20692   0.89723   0.21868   0.00000  Uiso   1.00
C189   C     0.18419   0.93782   0.12486   0.00000  Uiso   1.00
C190   C     0.38282   0.85201   0.41419   0.00000  Uiso   1.00
C191   C     0.45297   0.81221   0.42865   0.00000  Uiso   1.00
C192   C     0.56035   0.82287   0.45447   0.00000  Uiso   1.00
C193   C     0.74215   0.82042   0.49714   0.00000  Uiso   1.00
C194   C     0.19803   0.87616   0.43025   0.00000  Uiso   1.00
C195   C     0.11282   0.85666   0.45824   0.00000  Uiso   1.00
C196   C     0.06464   0.88765   0.49760   0.00000  Uiso   1.00
C197   C     0.95952   0.92270   0.56522   0.00000  Uiso   1.00
C198   C     0.32821   0.93851   0.40579   0.00000  Uiso   1.00
C199   C     0.28691   0.92845   0.33724   0.00000  Uiso   1.00
C200   C     0.28344   0.96248   0.28914   0.00000  Uiso   1.00
C201   C     0.24282   0.94604   0.22964   0.00000  Uiso   1.00
C202   C     0.41866   0.90073   0.42513   0.00000  Uiso   1.00
C203   C     0.52597   0.91145   0.45093   0.00000  Uiso   1.00
C204   C     0.59626   0.87168   0.46543   0.00000  Uiso   1.00
C205   C     0.23387   0.92488   0.44119   0.00000  Uiso   1.00
C206   C     0.18582   0.95590   0.48052   0.00000  Uiso   1.00
C207   C     0.10055   0.93646   0.50856   0.00000  Uiso   1.00
H208   H     0.23434   0.81088   0.37713   0.00000  Uiso   1.00
H209   H     0.18273   0.82553   0.25841   0.00000  Uiso   1.00
H210   H     0.42521   0.77451   0.42018   0.00000  Uiso   1.00
H211   H     0.08511   0.81895   0.44976   0.00000  Uiso   1.00
H212   H     0.14135   0.86325   0.13161   0.00000  Uiso   1.00
H213   H     0.65262   0.75567   0.47273   0.00000  Uiso   1.00
H214   H     0.93547   0.84940   0.53512   0.00000  Uiso   1.00
H215   H     0.35612   0.97644   0.41431   0.00000  Uiso   1.00
H216   H     0.31118   0.00018   0.29762   0.00000  Uiso   1.00
H217   H     0.55367   0.94916   0.45940   0.00000  Uiso   1.00
H218   H     0.21357   0.99360   0.48898   0.00000  Uiso   1.00
H219   H     0.24562   0.00501   0.16343   0.00000  Uiso   1.00
H220   H     0.75689   0.89743   0.50456   0.00000  Uiso   1.00
H221   H     0.03973   0.99115   0.56694   0.00000  Uiso   1.00
O222   O     0.16177   0.94675   0.07009   0.00000  Uiso   1.00
O223   O     0.83252   0.80561   0.51764   0.00000  Uiso   1.00
O224   O     0.89163   0.92857   0.59948   0.00000  Uiso   1.00
N225   N     0.17204   0.89336   0.15511   0.00000  Uiso   1.00
N226   N     0.65005   0.79278   0.47404   0.00000  Uiso   1.00
N227   N     0.97959   0.88040   0.53237   0.00000  Uiso   1.00
N228   N     0.22814   0.96964   0.17224   0.00000  Uiso   1.00
N229   N     0.70615   0.86906   0.49116   0.00000  Uiso   1.00
N230   N     0.03569   0.95667   0.54950   0.00000  Uiso   1.00
C231   C     0.76223   0.34881   0.38565   0.00000  Uiso   1.00
C232   C     0.75107   0.37973   0.32630   0.00000  Uiso   1.00
C233   C     0.71045   0.36324   0.26686   0.00000  Uiso   1.00
C234   C     0.70692   0.39723   0.21868   0.00000  Uiso   1.00
C235   C     0.68419   0.43782   0.12486   0.00000  Uiso   1.00
C236   C     0.88282   0.35201   0.41419   0.00000  Uiso   1.00
C237   C     0.95297   0.31221   0.42865   0.00000  Uiso   1.00
C238   C     0.06035   0.32287   0.45447   0.00000  Uiso   1.00
C239   C     0.24215   0.32042   0.49714   0.00000  Uiso   1.00
C240   C     0.69803   0.37616   0.43025   0.00000  Uiso   1.00
C241   C     0.61282   0.35666   0.45824   0.00000  Uiso   1.00
C242   C     0.56464   0.38765   0.49760   0.00000  Uiso   1.00
C243   C     0.45952   0.42270   0.56522   0.00000  Uiso   1.00
C244   C     0.82821   0.43851   0.40579   0.00000  Uiso   1.00
C245   C     0.78691   0.42845   0.33724   0.00000  Uiso   1.00
C246   C     0.78344   0.46248   0.28914   0.00000  Uiso   1.00
C247   C     0.74282   0.44604   0.22964   0.00000  Uiso   1.00
C248   C     0.91866   0.40073   0.42513   0.00000  Uiso   1.00
C249   C     0.02597   0.41145   0.45093   0.00000  Uiso   1.00
C250   C     0.09626   0.37168   0.46543   0.00000  Uiso   1.00
C251   C     0.73387   0.42488   0.44119   0.00000  Uiso   1.00
C252   C     0.68582   0.45590   0.48052   0.00000  Uiso   1.00
C253   C     0.60055   0.43646   0.50856   0.00000  Uiso   1.00
H254   H     0.73434   0.31088   0.37713   0.00000  Uiso   1.00
H255   H     0.68273   0.32553   0.25841   0.00000  Uiso   1.00
H256   H     0.92521   0.27451   0.42018   0.00000  Uiso   1.00
H257   H     0.58511   0.31895   0.44976   0.00000  Uiso   1.00
H258   H     0.64135   0.36325   0.13161   0.00000  Uiso   1.00
H259   H     0.15262   0.25567   0.47273   0.00000  Uiso   1.00
H260   H     0.43547   0.34940   0.53512   0.00000  Uiso   1.00
H261   H     0.85612   0.47644   0.41431   0.00000  Uiso   1.00
H262   H     0.81118   0.50018   0.29762   0.00000  Uiso   1.00
H263   H     0.05367   0.44916   0.45940   0.00000  Uiso   1.00
H264   H     0.71357   0.49360   0.48898   0.00000  Uiso   1.00
H265   H     0.74562   0.50501   0.16343   0.00000  Uiso   1.00
H266   H     0.25689   0.39743   0.50456   0.00000  Uiso   1.00
H267   H     0.53973   0.49115   0.56694   0.00000  Uiso   1.00
O268   O     0.66177   0.44675   0.07009   0.00000  Uiso   1.00
O269   O     0.33252   0.30561   0.51764   0.00000  Uiso   1.00
O270   O     0.39163   0.42857   0.59948   0.00000  Uiso   1.00
N271   N     0.67204   0.39336   0.15511   0.00000  Uiso   1.00
N272   N     0.15005   0.29278   0.47404   0.00000  Uiso   1.00
N273   N     0.47959   0.38040   0.53237   0.00000  Uiso   1.00
N274   N     0.72814   0.46964   0.17224   0.00000  Uiso   1.00
N275   N     0.20615   0.36906   0.49116   0.00000  Uiso   1.00
N276   N     0.53569   0.45667   0.54950   0.00000  Uiso   1.00
C277   C     0.73777   0.84881   0.11435   0.00000  Uiso   1.00
C278   C     0.74893   0.87973   0.17370   0.00000  Uiso   1.00
C279   C     0.78955   0.86324   0.23314   0.00000  Uiso   1.00
C280   C     0.79308   0.89723   0.28132   0.00000  Uiso   1.00
C281   C     0.81581   0.93782   0.37514   0.00000  Uiso   1.00
C282   C     0.61718   0.85201   0.08581   0.00000  Uiso   1.00
C283   C     0.54703   0.81221   0.07135   0.00000  Uiso   1.00
C284   C     0.43965   0.82287   0.04553   0.00000  Uiso   1.00
C285   C     0.25785   0.82042   0.00286   0.00000  Uiso   1.00
C286   C     0.80197   0.87616   0.06975   0.00000  Uiso   1.00
C287   C     0.88718   0.85666   0.04176   0.00000  Uiso   1.00
C288   C     0.93536   0.88765   0.00240   0.00000  Uiso   1.00
C289   C     0.04048   0.92270   0.93478   0.00000  Uiso   1.00
C290   C     0.67179   0.93851   0.09421   0.00000  Uiso   1.00
C291   C     0.71309   0.92845   0.16276   0.00000  Uiso   1.00
C292   C     0.71656   0.96248   0.21086   0.00000  Uiso   1.00
C293   C     0.75718   0.94604   0.27036   0.00000  Uiso   1.00
C294   C     0.58134   0.90073   0.07487   0.00000  Uiso   1.00
C295   C     0.47403   0.91145   0.04907   0.00000  Uiso   1.00
C296   C     0.40374   0.87168   0.03457   0.00000  Uiso   1.00
C297   C     0.76613   0.92488   0.05881   0.00000  Uiso   1.00
C298   C     0.81418   0.95590   0.01948   0.00000  Uiso   1.00
C299   C     0.89945   0.93646   0.99144   0.00000  Uiso   1.00
H300   H     0.76566   0.81088   0.12287   0.00000  Uiso   1.00
H301   H     0.81727   0.82553   0.24159   0.00000  Uiso   1.00
H302   H     0.57479   0.77451   0.07982   0.00000  Uiso   1.00
H303   H     0.91489   0.81895   0.05024   0.00000  Uiso   1.00
H304   H     0.85865   0.86325   0.36839   0.00000  Uiso   1.00
H305   H     0.34738   0.75567   0.02727   0.00000  Uiso   1.00
H306   H     0.06453   0.84940   0.96488   0.00000  Uiso   1.00
H307   H     0.64388   0.97644   0.08569   0.00000  Uiso   1.00
H308   H     0.68882   0.00018   0.20238   0.00000  Uiso   1.00
H309   H     0.44633   0.94916   0.04060   0.00000  Uiso   1.00
H310   H     0.78643   0.99360   0.01102   0.00000  Uiso   1.00
H311   H     0.75438   0.00501   0.33657   0.00000  Uiso   1.00
H312   H     0.24311   0.89743   0.99544   0.00000  Uiso   1.00
H313   H     0.96027   0.99115   0.93306   0.00000  Uiso   1.00
O314   O     0.83823   0.94675   0.42991   0.00000  Uiso   1.00
O315   O     0.16748   0.80561   0.98236   0.00000  Uiso   1.00
O316   O     0.10837   0.92857   0.90052   0.00000  Uiso   1.00
N317   N     0.82796   0.89336   0.34489   0.00000  Uiso   1.00
N318   N     0.34995   0.79278   0.02596   0.00000  Uiso   1.00
N319   N     0.02041   0.88040   0.96763   0.00000  Uiso   1.00
N320   N     0.77186   0.96964   0.32776   0.00000  Uiso   1.00
N321   N     0.29385   0.86906   0.00884   0.00000  Uiso   1.00
N322   N     0.96431   0.95667   0.95050   0.00000  Uiso   1.00
C323   C     0.23777   0.34881   0.11435   0.00000  Uiso   1.00
C324   C     0.24893   0.37973   0.17370   0.00000  Uiso   1.00
C325   C     0.28955   0.36324   0.23314   0.00000  Uiso   1.00
C326   C     0.29308   0.39723   0.28132   0.00000  Uiso   1.00
C327   C     0.31581   0.43782   0.37514   0.00000  Uiso   1.00
C328   C     0.11718   0.35201   0.08581   0.00000  Uiso   1.00
C329   C     0.04703   0.31221   0.07135   0.00000  Uiso   1.00
C330   C     0.93965   0.32287   0.04553   0.00000  Uiso   1.00
C331   C     0.75785   0.32042   0.00286   0.00000  Uiso   1.00
C332   C     0.30197   0.37616   0.06975   0.00000  Uiso   1.00
C333   C     0.38718   0.35666   0.04176   0.00000  Uiso   1.00
C334   C     0.43536   0.38765   0.00240   0.00000  Uiso   1.00
C335   C     0.54048   0.42270   0.93478   0.00000  Uiso   1.00
C336   C     0.17179   0.43851   0.09421   0.00000  Uiso   1.00
C337   C     0.21309   0.42845   0.16276   0.00000  Uiso   1.00
C338   C     0.21656   0.46248   0.21086   0.00000  Uiso   1.00
C339   C     0.25718   0.44604   0.27036   0.00000  Uiso   1.00
C340   C     0.08134   0.40073   0.07487   0.00000  Uiso   1.00
C341   C     0.97403   0.41145   0.04907   0.00000  Uiso   1.00
C342   C     0.90374   0.37168   0.03457   0.00000  Uiso   1.00
C343   C     0.26613   0.42488   0.05881   0.00000  Uiso   1.00
C344   C     0.31418   0.45590   0.01948   0.00000  Uiso   1.00
C345   C     0.39945   0.43646   0.99144   0.00000  Uiso   1.00
H346   H     0.26566   0.31088   0.12287   0.00000  Uiso   1.00
H347   H     0.31727   0.32553   0.24159   0.00000  Uiso   1.00
H348   H     0.07479   0.27451   0.07982   0.00000  Uiso   1.00
H349   H     0.41489   0.31895   0.05024   0.00000  Uiso   1.00
H350   H     0.35865   0.36325   0.36839   0.00000  Uiso   1.00
H351   H     0.84738   0.25567   0.02727   0.00000  Uiso   1.00
H352   H     0.56453   0.34940   0.96488   0.00000  Uiso   1.00
H353   H     0.14388   0.47644   0.08569   0.00000  Uiso   1.00
H354   H     0.18882   0.50018   0.20238   0.00000  Uiso   1.00
H355   H     0.94633   0.44916   0.04060   0.00000  Uiso   1.00
H356   H     0.28643   0.49360   0.01102   0.00000  Uiso   1.00
H357   H     0.25438   0.50501   0.33657   0.00000  Uiso   1.00
H358   H     0.74311   0.39743   0.99544   0.00000  Uiso   1.00
H359   H     0.46027   0.49115   0.93306   0.00000  Uiso   1.00
O360   O     0.33823   0.44675   0.42991   0.00000  Uiso   1.00
O361   O     0.66748   0.30561   0.98236   0.00000  Uiso   1.00
O362   O     0.60837   0.42857   0.90052   0.00000  Uiso   1.00
N363   N     0.32796   0.39336   0.34489   0.00000  Uiso   1.00
N364   N     0.84995   0.29278   0.02596   0.00000  Uiso   1.00
N365   N     0.52041   0.38040   0.96763   0.00000  Uiso   1.00
N366   N     0.27186   0.46964   0.32776   0.00000  Uiso   1.00
N367   N     0.79385   0.36906   0.00884   0.00000  Uiso   1.00
N368   N     0.46431   0.45667   0.95050   0.00000  Uiso   1.00
