data_job_03670
_audit_creation_date              2018-12-19
_audit_creation_method            'Materials Studio'
_symmetry_space_group_name_H-M    'P1'
_symmetry_Int_Tables_number       1
_symmetry_cell_setting            triclinic
loop_
_symmetry_equiv_pos_as_xyz
  x,y,z
_cell_length_a                    35.6115
_cell_length_b                    7.2359
_cell_length_c                    44.3596
_cell_angle_alpha                 90.0000
_cell_angle_beta                  146.1261
_cell_angle_gamma                 90.0000
loop_
_atom_site_label
_atom_site_type_symbol
_atom_site_fract_x
_atom_site_fract_y
_atom_site_fract_z
_atom_site_U_iso_or_equiv
_atom_site_adp_type
_atom_site_occupancy
C1     C     0.81122   0.99352   0.14592   0.00000  Uiso   1.00
C2     C     0.81735   0.00152   0.11577   0.00000  Uiso   1.00
C3     C     0.82755   0.85133   0.10366   0.00000  Uiso   1.00
C4     C     0.83178   0.88748   0.07580   0.00000  Uiso   1.00
C5     C     0.84222   0.87254   0.03131   0.00000  Uiso   1.00
C6     C     0.86523   0.12315   0.19419   0.00000  Uiso   1.00
C7     C     0.91567   0.07521   0.24802   0.00000  Uiso   1.00
C8     C     0.96020   0.21377   0.28618   0.00000  Uiso   1.00
C9     C     0.04493   0.38769   0.36344   0.00000  Uiso   1.00
C10    C     0.74380   0.08294   0.10866   0.00000  Uiso   1.00
C11    C     0.69216   0.00122   0.09058   0.00000  Uiso   1.00
C12    C     0.63445   0.10594   0.05674   0.00000  Uiso   1.00
C13    C     0.53065   0.21742   0.00120   0.00000  Uiso   1.00
C14    C     0.80059   0.32484   0.11798   0.00000  Uiso   1.00
C15    C     0.81158   0.18148   0.10059   0.00000  Uiso   1.00
C16    C     0.81579   0.21788   0.07274   0.00000  Uiso   1.00
C17    C     0.82599   0.06776   0.06059   0.00000  Uiso   1.00
C18    C     0.85945   0.30310   0.17902   0.00000  Uiso   1.00
C19    C     0.90391   0.44177   0.21710   0.00000  Uiso   1.00
C20    C     0.95441   0.39405   0.27098   0.00000  Uiso   1.00
C21    C     0.73802   0.26290   0.09348   0.00000  Uiso   1.00
C22    C     0.68039   0.36777   0.05966   0.00000  Uiso   1.00
C23    C     0.62867   0.28622   0.04153   0.00000  Uiso   1.00
H24    H     0.81572   0.85343   0.15774   0.00000  Uiso   1.00
H25    H     0.83203   0.71208   0.11541   0.00000  Uiso   1.00
H26    H     0.92013   0.93595   0.25975   0.00000  Uiso   1.00
H27    H     0.69664   0.86196   0.10233   0.00000  Uiso   1.00
H28    H     0.84758   0.63475   0.06181   0.00000  Uiso   1.00
H29    H     0.03334   0.10679   0.36616   0.00000  Uiso   1.00
H30    H     0.56208   0.95077   0.03421   0.00000  Uiso   1.00
H31    H     0.79609   0.46495   0.10616   0.00000  Uiso   1.00
H32    H     0.81132   0.35716   0.06100   0.00000  Uiso   1.00
H33    H     0.89942   0.58102   0.20534   0.00000  Uiso   1.00
H34    H     0.67594   0.50703   0.04792   0.00000  Uiso   1.00
H35    H     0.83078   0.15831   0.01765   0.00000  Uiso   1.00
H36    H     0.01653   0.63035   0.32200   0.00000  Uiso   1.00
H37    H     0.54527   0.47433   0.99005   0.00000  Uiso   1.00
O38    O     0.84958   0.81459   0.01097   0.00000  Uiso   1.00
O39    O     0.09327   0.43390   0.41026   0.00000  Uiso   1.00
O40    O     0.47499   0.22920   0.97475   0.00000  Uiso   1.00
N41    N     0.84152   0.77276   0.05760   0.00000  Uiso   1.00
N42    N     0.01520   0.21408   0.34215   0.00000  Uiso   1.00
N43    N     0.57462   0.06823   0.03182   0.00000  Uiso   1.00
N44    N     0.83248   0.05448   0.03384   0.00000  Uiso   1.00
N45    N     0.00616   0.49580   0.31839   0.00000  Uiso   1.00
N46    N     0.56558   0.34995   0.00806   0.00000  Uiso   1.00
C47    C     0.31122   0.49352   0.14592   0.00000  Uiso   1.00
C48    C     0.31735   0.50152   0.11577   0.00000  Uiso   1.00
C49    C     0.32755   0.35133   0.10366   0.00000  Uiso   1.00
C50    C     0.33178   0.38748   0.07580   0.00000  Uiso   1.00
C51    C     0.34222   0.37254   0.03131   0.00000  Uiso   1.00
C52    C     0.36523   0.62315   0.19419   0.00000  Uiso   1.00
C53    C     0.41567   0.57521   0.24802   0.00000  Uiso   1.00
C54    C     0.46020   0.71377   0.28618   0.00000  Uiso   1.00
C55    C     0.54493   0.88769   0.36344   0.00000  Uiso   1.00
C56    C     0.24380   0.58294   0.10866   0.00000  Uiso   1.00
C57    C     0.19216   0.50122   0.09058   0.00000  Uiso   1.00
C58    C     0.13445   0.60594   0.05674   0.00000  Uiso   1.00
C59    C     0.03065   0.71742   0.00120   0.00000  Uiso   1.00
C60    C     0.30059   0.82484   0.11798   0.00000  Uiso   1.00
C61    C     0.31158   0.68148   0.10059   0.00000  Uiso   1.00
C62    C     0.31579   0.71788   0.07274   0.00000  Uiso   1.00
C63    C     0.32599   0.56776   0.06059   0.00000  Uiso   1.00
C64    C     0.35945   0.80310   0.17902   0.00000  Uiso   1.00
C65    C     0.40391   0.94177   0.21710   0.00000  Uiso   1.00
C66    C     0.45441   0.89405   0.27098   0.00000  Uiso   1.00
C67    C     0.23802   0.76290   0.09348   0.00000  Uiso   1.00
C68    C     0.18039   0.86777   0.05966   0.00000  Uiso   1.00
C69    C     0.12867   0.78622   0.04153   0.00000  Uiso   1.00
H70    H     0.31572   0.35343   0.15774   0.00000  Uiso   1.00
H71    H     0.33203   0.21208   0.11541   0.00000  Uiso   1.00
H72    H     0.42013   0.43595   0.25975   0.00000  Uiso   1.00
H73    H     0.19664   0.36196   0.10233   0.00000  Uiso   1.00
H74    H     0.34758   0.13475   0.06181   0.00000  Uiso   1.00
H75    H     0.53334   0.60679   0.36616   0.00000  Uiso   1.00
H76    H     0.06208   0.45077   0.03421   0.00000  Uiso   1.00
H77    H     0.29609   0.96495   0.10616   0.00000  Uiso   1.00
H78    H     0.31132   0.85716   0.06100   0.00000  Uiso   1.00
H79    H     0.39942   0.08102   0.20534   0.00000  Uiso   1.00
H80    H     0.17594   0.00703   0.04792   0.00000  Uiso   1.00
H81    H     0.33078   0.65831   0.01765   0.00000  Uiso   1.00
H82    H     0.51653   0.13035   0.32200   0.00000  Uiso   1.00
H83    H     0.04527   0.97433   0.99005   0.00000  Uiso   1.00
O84    O     0.34958   0.31459   0.01097   0.00000  Uiso   1.00
O85    O     0.59327   0.93390   0.41026   0.00000  Uiso   1.00
O86    O     0.97499   0.72920   0.97475   0.00000  Uiso   1.00
N87    N     0.34152   0.27276   0.05760   0.00000  Uiso   1.00
N88    N     0.51520   0.71408   0.34215   0.00000  Uiso   1.00
N89    N     0.07462   0.56823   0.03182   0.00000  Uiso   1.00
N90    N     0.33248   0.55448   0.03384   0.00000  Uiso   1.00
N91    N     0.50616   0.99580   0.31839   0.00000  Uiso   1.00
N92    N     0.06558   0.84995   0.00806   0.00000  Uiso   1.00
C93    C     0.18878   0.99352   0.35408   0.00000  Uiso   1.00
C94    C     0.18265   0.00152   0.38423   0.00000  Uiso   1.00
C95    C     0.17245   0.85133   0.39634   0.00000  Uiso   1.00
C96    C     0.16822   0.88748   0.42420   0.00000  Uiso   1.00
C97    C     0.15778   0.87254   0.46869   0.00000  Uiso   1.00
C98    C     0.13477   0.12315   0.30581   0.00000  Uiso   1.00
C99    C     0.08433   0.07521   0.25198   0.00000  Uiso   1.00
C100   C     0.03980   0.21377   0.21382   0.00000  Uiso   1.00
C101   C     0.95507   0.38769   0.13656   0.00000  Uiso   1.00
C102   C     0.25620   0.08294   0.39134   0.00000  Uiso   1.00
C103   C     0.30784   0.00122   0.40942   0.00000  Uiso   1.00
C104   C     0.36555   0.10594   0.44326   0.00000  Uiso   1.00
C105   C     0.46935   0.21742   0.49880   0.00000  Uiso   1.00
C106   C     0.19941   0.32484   0.38202   0.00000  Uiso   1.00
C107   C     0.18842   0.18148   0.39941   0.00000  Uiso   1.00
C108   C     0.18421   0.21788   0.42726   0.00000  Uiso   1.00
C109   C     0.17401   0.06776   0.43941   0.00000  Uiso   1.00
C110   C     0.14055   0.30310   0.32098   0.00000  Uiso   1.00
C111   C     0.09609   0.44177   0.28290   0.00000  Uiso   1.00
C112   C     0.04559   0.39405   0.22902   0.00000  Uiso   1.00
C113   C     0.26198   0.26290   0.40652   0.00000  Uiso   1.00
C114   C     0.31961   0.36777   0.44034   0.00000  Uiso   1.00
C115   C     0.37133   0.28622   0.45847   0.00000  Uiso   1.00
H116   H     0.18428   0.85343   0.34226   0.00000  Uiso   1.00
H117   H     0.16797   0.71208   0.38459   0.00000  Uiso   1.00
H118   H     0.07987   0.93595   0.24025   0.00000  Uiso   1.00
H119   H     0.30336   0.86196   0.39767   0.00000  Uiso   1.00
H120   H     0.15242   0.63475   0.43819   0.00000  Uiso   1.00
H121   H     0.96666   0.10679   0.13384   0.00000  Uiso   1.00
H122   H     0.43792   0.95077   0.46579   0.00000  Uiso   1.00
H123   H     0.20391   0.46495   0.39384   0.00000  Uiso   1.00
H124   H     0.18868   0.35716   0.43900   0.00000  Uiso   1.00
H125   H     0.10058   0.58102   0.29466   0.00000  Uiso   1.00
H126   H     0.32406   0.50703   0.45208   0.00000  Uiso   1.00
H127   H     0.16922   0.15831   0.48235   0.00000  Uiso   1.00
H128   H     0.98347   0.63035   0.17800   0.00000  Uiso   1.00
H129   H     0.45473   0.47433   0.50995   0.00000  Uiso   1.00
O130   O     0.15042   0.81459   0.48903   0.00000  Uiso   1.00
O131   O     0.90673   0.43390   0.08974   0.00000  Uiso   1.00
O132   O     0.52501   0.22920   0.52525   0.00000  Uiso   1.00
N133   N     0.15848   0.77276   0.44240   0.00000  Uiso   1.00
N134   N     0.98480   0.21408   0.15785   0.00000  Uiso   1.00
N135   N     0.42538   0.06823   0.46818   0.00000  Uiso   1.00
N136   N     0.16752   0.05448   0.46616   0.00000  Uiso   1.00
N137   N     0.99384   0.49580   0.18161   0.00000  Uiso   1.00
N138   N     0.43442   0.34995   0.49194   0.00000  Uiso   1.00
C139   C     0.68878   0.49352   0.35408   0.00000  Uiso   1.00
C140   C     0.68265   0.50152   0.38423   0.00000  Uiso   1.00
C141   C     0.67245   0.35133   0.39634   0.00000  Uiso   1.00
C142   C     0.66822   0.38748   0.42420   0.00000  Uiso   1.00
C143   C     0.65778   0.37254   0.46869   0.00000  Uiso   1.00
C144   C     0.63477   0.62315   0.30581   0.00000  Uiso   1.00
C145   C     0.58433   0.57521   0.25198   0.00000  Uiso   1.00
C146   C     0.53980   0.71377   0.21382   0.00000  Uiso   1.00
C147   C     0.45507   0.88769   0.13656   0.00000  Uiso   1.00
C148   C     0.75620   0.58294   0.39134   0.00000  Uiso   1.00
C149   C     0.80784   0.50122   0.40942   0.00000  Uiso   1.00
C150   C     0.86555   0.60594   0.44326   0.00000  Uiso   1.00
C151   C     0.96935   0.71742   0.49880   0.00000  Uiso   1.00
C152   C     0.69941   0.82484   0.38202   0.00000  Uiso   1.00
C153   C     0.68842   0.68148   0.39941   0.00000  Uiso   1.00
C154   C     0.68421   0.71788   0.42726   0.00000  Uiso   1.00
C155   C     0.67401   0.56776   0.43941   0.00000  Uiso   1.00
C156   C     0.64055   0.80310   0.32098   0.00000  Uiso   1.00
C157   C     0.59609   0.94177   0.28290   0.00000  Uiso   1.00
C158   C     0.54559   0.89405   0.22902   0.00000  Uiso   1.00
C159   C     0.76198   0.76290   0.40652   0.00000  Uiso   1.00
C160   C     0.81961   0.86777   0.44034   0.00000  Uiso   1.00
C161   C     0.87133   0.78622   0.45847   0.00000  Uiso   1.00
H162   H     0.68428   0.35343   0.34226   0.00000  Uiso   1.00
H163   H     0.66797   0.21208   0.38459   0.00000  Uiso   1.00
H164   H     0.57987   0.43595   0.24025   0.00000  Uiso   1.00
H165   H     0.80336   0.36196   0.39767   0.00000  Uiso   1.00
H166   H     0.65242   0.13475   0.43819   0.00000  Uiso   1.00
H167   H     0.46666   0.60679   0.13384   0.00000  Uiso   1.00
H168   H     0.93792   0.45077   0.46579   0.00000  Uiso   1.00
H169   H     0.70391   0.96495   0.39384   0.00000  Uiso   1.00
H170   H     0.68868   0.85716   0.43900   0.00000  Uiso   1.00
H171   H     0.60058   0.08102   0.29466   0.00000  Uiso   1.00
H172   H     0.82406   0.00703   0.45208   0.00000  Uiso   1.00
H173   H     0.66922   0.65831   0.48235   0.00000  Uiso   1.00
H174   H     0.48347   0.13035   0.17800   0.00000  Uiso   1.00
H175   H     0.95473   0.97433   0.50995   0.00000  Uiso   1.00
O176   O     0.65042   0.31459   0.48903   0.00000  Uiso   1.00
O177   O     0.40673   0.93390   0.08974   0.00000  Uiso   1.00
O178   O     0.02501   0.72920   0.52525   0.00000  Uiso   1.00
N179   N     0.65848   0.27276   0.44240   0.00000  Uiso   1.00
N180   N     0.48480   0.71408   0.15785   0.00000  Uiso   1.00
N181   N     0.92538   0.56823   0.46818   0.00000  Uiso   1.00
N182   N     0.66752   0.55448   0.46616   0.00000  Uiso   1.00
N183   N     0.49384   0.99580   0.18161   0.00000  Uiso   1.00
N184   N     0.93442   0.84995   0.49194   0.00000  Uiso   1.00
C185   C     0.18878   0.00648   0.85408   0.00000  Uiso   1.00
C186   C     0.18265   0.99848   0.88423   0.00000  Uiso   1.00
C187   C     0.17245   0.14867   0.89634   0.00000  Uiso   1.00
C188   C     0.16822   0.11252   0.92420   0.00000  Uiso   1.00
C189   C     0.15778   0.12746   0.96869   0.00000  Uiso   1.00
C190   C     0.13477   0.87685   0.80581   0.00000  Uiso   1.00
C191   C     0.08433   0.92479   0.75198   0.00000  Uiso   1.00
C192   C     0.03980   0.78623   0.71382   0.00000  Uiso   1.00
C193   C     0.95507   0.61231   0.63656   0.00000  Uiso   1.00
C194   C     0.25620   0.91706   0.89134   0.00000  Uiso   1.00
C195   C     0.30784   0.99878   0.90942   0.00000  Uiso   1.00
C196   C     0.36555   0.89406   0.94326   0.00000  Uiso   1.00
C197   C     0.46935   0.78258   0.99880   0.00000  Uiso   1.00
C198   C     0.19941   0.67516   0.88202   0.00000  Uiso   1.00
C199   C     0.18842   0.81852   0.89941   0.00000  Uiso   1.00
C200   C     0.18421   0.78212   0.92726   0.00000  Uiso   1.00
C201   C     0.17401   0.93224   0.93941   0.00000  Uiso   1.00
C202   C     0.14055   0.69690   0.82098   0.00000  Uiso   1.00
C203   C     0.09609   0.55823   0.78290   0.00000  Uiso   1.00
C204   C     0.04559   0.60595   0.72902   0.00000  Uiso   1.00
C205   C     0.26198   0.73710   0.90652   0.00000  Uiso   1.00
C206   C     0.31961   0.63223   0.94034   0.00000  Uiso   1.00
C207   C     0.37133   0.71378   0.95847   0.00000  Uiso   1.00
H208   H     0.18428   0.14657   0.84226   0.00000  Uiso   1.00
H209   H     0.16797   0.28792   0.88459   0.00000  Uiso   1.00
H210   H     0.07987   0.06405   0.74025   0.00000  Uiso   1.00
H211   H     0.30336   0.13804   0.89767   0.00000  Uiso   1.00
H212   H     0.15242   0.36525   0.93819   0.00000  Uiso   1.00
H213   H     0.96666   0.89321   0.63384   0.00000  Uiso   1.00
H214   H     0.43792   0.04923   0.96579   0.00000  Uiso   1.00
H215   H     0.20391   0.53505   0.89384   0.00000  Uiso   1.00
H216   H     0.18868   0.64284   0.93900   0.00000  Uiso   1.00
H217   H     0.10058   0.41898   0.79466   0.00000  Uiso   1.00
H218   H     0.32406   0.49297   0.95208   0.00000  Uiso   1.00
H219   H     0.16922   0.84169   0.98235   0.00000  Uiso   1.00
H220   H     0.98347   0.36965   0.67800   0.00000  Uiso   1.00
H221   H     0.45473   0.52567   0.00995   0.00000  Uiso   1.00
O222   O     0.15042   0.18541   0.98903   0.00000  Uiso   1.00
O223   O     0.90673   0.56610   0.58974   0.00000  Uiso   1.00
O224   O     0.52501   0.77080   0.02525   0.00000  Uiso   1.00
N225   N     0.15848   0.22724   0.94240   0.00000  Uiso   1.00
N226   N     0.98480   0.78592   0.65785   0.00000  Uiso   1.00
N227   N     0.42538   0.93177   0.96818   0.00000  Uiso   1.00
N228   N     0.16752   0.94552   0.96616   0.00000  Uiso   1.00
N229   N     0.99384   0.50420   0.68161   0.00000  Uiso   1.00
N230   N     0.43442   0.65005   0.99194   0.00000  Uiso   1.00
C231   C     0.68878   0.50648   0.85408   0.00000  Uiso   1.00
C232   C     0.68265   0.49848   0.88423   0.00000  Uiso   1.00
C233   C     0.67245   0.64867   0.89634   0.00000  Uiso   1.00
C234   C     0.66822   0.61252   0.92420   0.00000  Uiso   1.00
C235   C     0.65778   0.62746   0.96869   0.00000  Uiso   1.00
C236   C     0.63477   0.37685   0.80581   0.00000  Uiso   1.00
C237   C     0.58433   0.42479   0.75198   0.00000  Uiso   1.00
C238   C     0.53980   0.28623   0.71382   0.00000  Uiso   1.00
C239   C     0.45507   0.11231   0.63656   0.00000  Uiso   1.00
C240   C     0.75620   0.41706   0.89134   0.00000  Uiso   1.00
C241   C     0.80784   0.49878   0.90942   0.00000  Uiso   1.00
C242   C     0.86555   0.39406   0.94326   0.00000  Uiso   1.00
C243   C     0.96935   0.28258   0.99880   0.00000  Uiso   1.00
C244   C     0.69941   0.17516   0.88202   0.00000  Uiso   1.00
C245   C     0.68842   0.31852   0.89941   0.00000  Uiso   1.00
C246   C     0.68421   0.28212   0.92726   0.00000  Uiso   1.00
C247   C     0.67401   0.43224   0.93941   0.00000  Uiso   1.00
C248   C     0.64055   0.19690   0.82098   0.00000  Uiso   1.00
C249   C     0.59609   0.05823   0.78290   0.00000  Uiso   1.00
C250   C     0.54559   0.10595   0.72902   0.00000  Uiso   1.00
C251   C     0.76198   0.23710   0.90652   0.00000  Uiso   1.00
C252   C     0.81961   0.13223   0.94034   0.00000  Uiso   1.00
C253   C     0.87133   0.21378   0.95847   0.00000  Uiso   1.00
H254   H     0.68428   0.64657   0.84226   0.00000  Uiso   1.00
H255   H     0.66797   0.78792   0.88459   0.00000  Uiso   1.00
H256   H     0.57987   0.56405   0.74025   0.00000  Uiso   1.00
H257   H     0.80336   0.63804   0.89767   0.00000  Uiso   1.00
H258   H     0.65242   0.86525   0.93819   0.00000  Uiso   1.00
H259   H     0.46666   0.39321   0.63384   0.00000  Uiso   1.00
H260   H     0.93792   0.54923   0.96579   0.00000  Uiso   1.00
H261   H     0.70391   0.03505   0.89384   0.00000  Uiso   1.00
H262   H     0.68868   0.14284   0.93900   0.00000  Uiso   1.00
H263   H     0.60058   0.91898   0.79466   0.00000  Uiso   1.00
H264   H     0.82406   0.99297   0.95208   0.00000  Uiso   1.00
H265   H     0.66922   0.34169   0.98235   0.00000  Uiso   1.00
H266   H     0.48347   0.86965   0.67800   0.00000  Uiso   1.00
H267   H     0.95473   0.02567   0.00995   0.00000  Uiso   1.00
O268   O     0.65042   0.68541   0.98903   0.00000  Uiso   1.00
O269   O     0.40673   0.06610   0.58974   0.00000  Uiso   1.00
O270   O     0.02501   0.27080   0.02525   0.00000  Uiso   1.00
N271   N     0.65848   0.72724   0.94240   0.00000  Uiso   1.00
N272   N     0.48480   0.28592   0.65785   0.00000  Uiso   1.00
N273   N     0.92538   0.43177   0.96818   0.00000  Uiso   1.00
N274   N     0.66752   0.44552   0.96616   0.00000  Uiso   1.00
N275   N     0.49384   0.00420   0.68161   0.00000  Uiso   1.00
N276   N     0.93442   0.15005   0.99194   0.00000  Uiso   1.00
C277   C     0.81122   0.00648   0.64592   0.00000  Uiso   1.00
C278   C     0.81735   0.99848   0.61577   0.00000  Uiso   1.00
C279   C     0.82755   0.14867   0.60366   0.00000  Uiso   1.00
C280   C     0.83178   0.11252   0.57580   0.00000  Uiso   1.00
C281   C     0.84222   0.12746   0.53131   0.00000  Uiso   1.00
C282   C     0.86523   0.87685   0.69419   0.00000  Uiso   1.00
C283   C     0.91567   0.92479   0.74802   0.00000  Uiso   1.00
C284   C     0.96020   0.78623   0.78618   0.00000  Uiso   1.00
C285   C     0.04493   0.61231   0.86344   0.00000  Uiso   1.00
C286   C     0.74380   0.91706   0.60866   0.00000  Uiso   1.00
C287   C     0.69216   0.99878   0.59058   0.00000  Uiso   1.00
C288   C     0.63445   0.89406   0.55674   0.00000  Uiso   1.00
C289   C     0.53065   0.78258   0.50120   0.00000  Uiso   1.00
C290   C     0.80059   0.67516   0.61798   0.00000  Uiso   1.00
C291   C     0.81158   0.81852   0.60059   0.00000  Uiso   1.00
C292   C     0.81579   0.78212   0.57274   0.00000  Uiso   1.00
C293   C     0.82599   0.93224   0.56059   0.00000  Uiso   1.00
C294   C     0.85945   0.69690   0.67902   0.00000  Uiso   1.00
C295   C     0.90391   0.55823   0.71710   0.00000  Uiso   1.00
C296   C     0.95441   0.60595   0.77098   0.00000  Uiso   1.00
C297   C     0.73802   0.73710   0.59348   0.00000  Uiso   1.00
C298   C     0.68039   0.63223   0.55966   0.00000  Uiso   1.00
C299   C     0.62867   0.71378   0.54153   0.00000  Uiso   1.00
H300   H     0.81572   0.14657   0.65774   0.00000  Uiso   1.00
H301   H     0.83203   0.28792   0.61541   0.00000  Uiso   1.00
H302   H     0.92013   0.06405   0.75975   0.00000  Uiso   1.00
H303   H     0.69664   0.13804   0.60233   0.00000  Uiso   1.00
H304   H     0.84758   0.36525   0.56181   0.00000  Uiso   1.00
H305   H     0.03334   0.89321   0.86616   0.00000  Uiso   1.00
H306   H     0.56208   0.04923   0.53421   0.00000  Uiso   1.00
H307   H     0.79609   0.53505   0.60616   0.00000  Uiso   1.00
H308   H     0.81132   0.64284   0.56100   0.00000  Uiso   1.00
H309   H     0.89942   0.41898   0.70534   0.00000  Uiso   1.00
H310   H     0.67594   0.49297   0.54792   0.00000  Uiso   1.00
H311   H     0.83078   0.84169   0.51765   0.00000  Uiso   1.00
H312   H     0.01653   0.36965   0.82200   0.00000  Uiso   1.00
H313   H     0.54527   0.52567   0.49005   0.00000  Uiso   1.00
O314   O     0.84958   0.18541   0.51097   0.00000  Uiso   1.00
O315   O     0.09327   0.56610   0.91026   0.00000  Uiso   1.00
O316   O     0.47499   0.77080   0.47475   0.00000  Uiso   1.00
N317   N     0.84152   0.22724   0.55760   0.00000  Uiso   1.00
N318   N     0.01520   0.78592   0.84215   0.00000  Uiso   1.00
N319   N     0.57462   0.93177   0.53182   0.00000  Uiso   1.00
N320   N     0.83248   0.94552   0.53384   0.00000  Uiso   1.00
N321   N     0.00616   0.50420   0.81839   0.00000  Uiso   1.00
N322   N     0.56558   0.65005   0.50806   0.00000  Uiso   1.00
C323   C     0.31122   0.50648   0.64592   0.00000  Uiso   1.00
C324   C     0.31735   0.49848   0.61577   0.00000  Uiso   1.00
C325   C     0.32755   0.64867   0.60366   0.00000  Uiso   1.00
C326   C     0.33178   0.61252   0.57580   0.00000  Uiso   1.00
C327   C     0.34222   0.62746   0.53131   0.00000  Uiso   1.00
C328   C     0.36523   0.37685   0.69419   0.00000  Uiso   1.00
C329   C     0.41567   0.42479   0.74802   0.00000  Uiso   1.00
C330   C     0.46020   0.28623   0.78618   0.00000  Uiso   1.00
C331   C     0.54493   0.11231   0.86344   0.00000  Uiso   1.00
C332   C     0.24380   0.41706   0.60866   0.00000  Uiso   1.00
C333   C     0.19216   0.49878   0.59058   0.00000  Uiso   1.00
C334   C     0.13445   0.39406   0.55674   0.00000  Uiso   1.00
C335   C     0.03065   0.28258   0.50120   0.00000  Uiso   1.00
C336   C     0.30059   0.17516   0.61798   0.00000  Uiso   1.00
C337   C     0.31158   0.31852   0.60059   0.00000  Uiso   1.00
C338   C     0.31579   0.28212   0.57274   0.00000  Uiso   1.00
C339   C     0.32599   0.43224   0.56059   0.00000  Uiso   1.00
C340   C     0.35945   0.19690   0.67902   0.00000  Uiso   1.00
C341   C     0.40391   0.05823   0.71710   0.00000  Uiso   1.00
C342   C     0.45441   0.10595   0.77098   0.00000  Uiso   1.00
C343   C     0.23802   0.23710   0.59348   0.00000  Uiso   1.00
C344   C     0.18039   0.13223   0.55966   0.00000  Uiso   1.00
C345   C     0.12867   0.21378   0.54153   0.00000  Uiso   1.00
H346   H     0.31572   0.64657   0.65774   0.00000  Uiso   1.00
H347   H     0.33203   0.78792   0.61541   0.00000  Uiso   1.00
H348   H     0.42013   0.56405   0.75975   0.00000  Uiso   1.00
H349   H     0.19664   0.63804   0.60233   0.00000  Uiso   1.00
H350   H     0.34758   0.86525   0.56181   0.00000  Uiso   1.00
H351   H     0.53334   0.39321   0.86616   0.00000  Uiso   1.00
H352   H     0.06208   0.54923   0.53421   0.00000  Uiso   1.00
H353   H     0.29609   0.03505   0.60616   0.00000  Uiso   1.00
H354   H     0.31132   0.14284   0.56100   0.00000  Uiso   1.00
H355   H     0.39942   0.91898   0.70534   0.00000  Uiso   1.00
H356   H     0.17594   0.99297   0.54792   0.00000  Uiso   1.00
H357   H     0.33078   0.34169   0.51765   0.00000  Uiso   1.00
H358   H     0.51653   0.86965   0.82200   0.00000  Uiso   1.00
H359   H     0.04527   0.02567   0.49005   0.00000  Uiso   1.00
O360   O     0.34958   0.68541   0.51097   0.00000  Uiso   1.00
O361   O     0.59327   0.06610   0.91026   0.00000  Uiso   1.00
O362   O     0.97499   0.27080   0.47475   0.00000  Uiso   1.00
N363   N     0.34152   0.72724   0.55760   0.00000  Uiso   1.00
N364   N     0.51520   0.28592   0.84215   0.00000  Uiso   1.00
N365   N     0.07462   0.43177   0.53182   0.00000  Uiso   1.00
N366   N     0.33248   0.44552   0.53384   0.00000  Uiso   1.00
N367   N     0.50616   0.00420   0.81839   0.00000  Uiso   1.00
N368   N     0.06558   0.15005   0.50806   0.00000  Uiso   1.00
