data_job_03612
_audit_creation_date              2018-12-19
_audit_creation_method            'Materials Studio'
_symmetry_space_group_name_H-M    'P1'
_symmetry_Int_Tables_number       1
_symmetry_cell_setting            triclinic
loop_
_symmetry_equiv_pos_as_xyz
  x,y,z
_cell_length_a                    18.4949
_cell_length_b                    18.4949
_cell_length_c                    14.6754
_cell_angle_alpha                 90.0000
_cell_angle_beta                  90.0000
_cell_angle_gamma                 90.0000
loop_
_atom_site_label
_atom_site_type_symbol
_atom_site_fract_x
_atom_site_fract_y
_atom_site_fract_z
_atom_site_U_iso_or_equiv
_atom_site_adp_type
_atom_site_occupancy
C1     C     0.11781   0.74706   0.02837   0.00000  Uiso   1.00
C2     C     0.08656   0.68397   0.97428   0.00000  Uiso   1.00
C3     C     0.12613   0.62867   0.93432   0.00000  Uiso   1.00
C4     C     0.08747   0.57599   0.88774   0.00000  Uiso   1.00
C5     C     0.05044   0.47765   0.80468   0.00000  Uiso   1.00
C6     C     0.09070   0.81551   0.98158   0.00000  Uiso   1.00
C7     C     0.13376   0.87079   0.94776   0.00000  Uiso   1.00
C8     C     0.09859   0.92885   0.90734   0.00000  Uiso   1.00
C9     C     0.06799   0.03475   0.83567   0.00000  Uiso   1.00
C10    C     0.08090   0.74498   0.12125   0.00000  Uiso   1.00
C11    C     0.11572   0.74100   0.20487   0.00000  Uiso   1.00
C12    C     0.07230   0.73969   0.28203   0.00000  Uiso   1.00
C13    C     0.02648   0.73609   0.42722   0.00000  Uiso   1.00
C14    C     0.97879   0.75185   0.01672   0.00000  Uiso   1.00
C15    C     0.01105   0.68658   0.96795   0.00000  Uiso   1.00
C16    C     0.97232   0.63397   0.92142   0.00000  Uiso   1.00
C17    C     0.01183   0.57859   0.88140   0.00000  Uiso   1.00
C18    C     0.01520   0.81811   0.97525   0.00000  Uiso   1.00
C19    C     0.97996   0.87610   0.93487   0.00000  Uiso   1.00
C20    C     0.02295   0.93146   0.90100   0.00000  Uiso   1.00
C21    C     0.00539   0.74758   0.11492   0.00000  Uiso   1.00
C22    C     0.96191   0.74629   0.19197   0.00000  Uiso   1.00
C23    C     0.99666   0.74230   0.27569   0.00000  Uiso   1.00
H24    H     0.17659   0.74504   0.03329   0.00000  Uiso   1.00
H25    H     0.18456   0.62667   0.93922   0.00000  Uiso   1.00
H26    H     0.19219   0.86877   0.95268   0.00000  Uiso   1.00
H27    H     0.17415   0.73898   0.20974   0.00000  Uiso   1.00
H28    H     0.16010   0.49661   0.83211   0.00000  Uiso   1.00
H29    H     0.17619   0.00709   0.86051   0.00000  Uiso   1.00
H30    H     0.13815   0.73342   0.40257   0.00000  Uiso   1.00
H31    H     0.92000   0.75388   0.01179   0.00000  Uiso   1.00
H32    H     0.91389   0.63600   0.91654   0.00000  Uiso   1.00
H33    H     0.92152   0.87809   0.92999   0.00000  Uiso   1.00
H34    H     0.90348   0.74831   0.18705   0.00000  Uiso   1.00
H35    H     0.94041   0.50418   0.81369   0.00000  Uiso   1.00
H36    H     0.95650   0.01466   0.84209   0.00000  Uiso   1.00
H37    H     0.91846   0.74099   0.38415   0.00000  Uiso   1.00
O38    O     0.05087   0.42270   0.76060   0.00000  Uiso   1.00
O39    O     0.07197   0.09244   0.79788   0.00000  Uiso   1.00
O40    O     0.02207   0.73338   0.50905   0.00000  Uiso   1.00
N41    N     0.10923   0.51456   0.84086   0.00000  Uiso   1.00
N42    N     0.12427   0.99183   0.86740   0.00000  Uiso   1.00
N43    N     0.08871   0.73598   0.37418   0.00000  Uiso   1.00
N44    N     0.99102   0.51863   0.83095   0.00000  Uiso   1.00
N45    N     0.00606   0.99590   0.85749   0.00000  Uiso   1.00
N46    N     0.97050   0.74005   0.36427   0.00000  Uiso   1.00
C47    C     0.88219   0.25294   0.52837   0.00000  Uiso   1.00
C48    C     0.91344   0.31603   0.47428   0.00000  Uiso   1.00
C49    C     0.87387   0.37133   0.43432   0.00000  Uiso   1.00
C50    C     0.91253   0.42401   0.38774   0.00000  Uiso   1.00
C51    C     0.94956   0.52235   0.30468   0.00000  Uiso   1.00
C52    C     0.90930   0.18449   0.48158   0.00000  Uiso   1.00
C53    C     0.86624   0.12921   0.44776   0.00000  Uiso   1.00
C54    C     0.90141   0.07115   0.40734   0.00000  Uiso   1.00
C55    C     0.93201   0.96525   0.33567   0.00000  Uiso   1.00
C56    C     0.91910   0.25502   0.62125   0.00000  Uiso   1.00
C57    C     0.88428   0.25900   0.70487   0.00000  Uiso   1.00
C58    C     0.92770   0.26031   0.78203   0.00000  Uiso   1.00
C59    C     0.97352   0.26391   0.92722   0.00000  Uiso   1.00
C60    C     0.02121   0.24815   0.51672   0.00000  Uiso   1.00
C61    C     0.98895   0.31342   0.46795   0.00000  Uiso   1.00
C62    C     0.02768   0.36603   0.42142   0.00000  Uiso   1.00
C63    C     0.98817   0.42141   0.38140   0.00000  Uiso   1.00
C64    C     0.98480   0.18189   0.47525   0.00000  Uiso   1.00
C65    C     0.02004   0.12390   0.43487   0.00000  Uiso   1.00
C66    C     0.97705   0.06854   0.40100   0.00000  Uiso   1.00
C67    C     0.99461   0.25242   0.61492   0.00000  Uiso   1.00
C68    C     0.03809   0.25371   0.69197   0.00000  Uiso   1.00
C69    C     0.00334   0.25770   0.77569   0.00000  Uiso   1.00
H70    H     0.82341   0.25496   0.53329   0.00000  Uiso   1.00
H71    H     0.81544   0.37333   0.43922   0.00000  Uiso   1.00
H72    H     0.80781   0.13123   0.45268   0.00000  Uiso   1.00
H73    H     0.82585   0.26102   0.70974   0.00000  Uiso   1.00
H74    H     0.83990   0.50339   0.33211   0.00000  Uiso   1.00
H75    H     0.82381   0.99291   0.36051   0.00000  Uiso   1.00
H76    H     0.86185   0.26658   0.90257   0.00000  Uiso   1.00
H77    H     0.08000   0.24612   0.51179   0.00000  Uiso   1.00
H78    H     0.08611   0.36400   0.41654   0.00000  Uiso   1.00
H79    H     0.07848   0.12191   0.42999   0.00000  Uiso   1.00
H80    H     0.09652   0.25169   0.68705   0.00000  Uiso   1.00
H81    H     0.05959   0.49582   0.31369   0.00000  Uiso   1.00
H82    H     0.04350   0.98534   0.34209   0.00000  Uiso   1.00
H83    H     0.08154   0.25901   0.88415   0.00000  Uiso   1.00
O84    O     0.94913   0.57730   0.26060   0.00000  Uiso   1.00
O85    O     0.92803   0.90756   0.29788   0.00000  Uiso   1.00
O86    O     0.97793   0.26662   0.00905   0.00000  Uiso   1.00
N87    N     0.89077   0.48544   0.34086   0.00000  Uiso   1.00
N88    N     0.87573   0.00817   0.36740   0.00000  Uiso   1.00
N89    N     0.91129   0.26402   0.87418   0.00000  Uiso   1.00
N90    N     0.00898   0.48137   0.33095   0.00000  Uiso   1.00
N91    N     0.99394   0.00410   0.35749   0.00000  Uiso   1.00
N92    N     0.02950   0.25995   0.86427   0.00000  Uiso   1.00
C93    C     0.75294   0.61781   0.77837   0.00000  Uiso   1.00
C94    C     0.81603   0.58656   0.72428   0.00000  Uiso   1.00
C95    C     0.87133   0.62613   0.68432   0.00000  Uiso   1.00
C96    C     0.92401   0.58747   0.63774   0.00000  Uiso   1.00
C97    C     0.02235   0.55044   0.55468   0.00000  Uiso   1.00
C98    C     0.68449   0.59070   0.73158   0.00000  Uiso   1.00
C99    C     0.62921   0.63376   0.69776   0.00000  Uiso   1.00
C100   C     0.57115   0.59859   0.65734   0.00000  Uiso   1.00
C101   C     0.46525   0.56799   0.58567   0.00000  Uiso   1.00
C102   C     0.75502   0.58090   0.87125   0.00000  Uiso   1.00
C103   C     0.75900   0.61572   0.95487   0.00000  Uiso   1.00
C104   C     0.76031   0.57230   0.03203   0.00000  Uiso   1.00
C105   C     0.76391   0.52648   0.17722   0.00000  Uiso   1.00
C106   C     0.74815   0.47879   0.76672   0.00000  Uiso   1.00
C107   C     0.81342   0.51105   0.71795   0.00000  Uiso   1.00
C108   C     0.86603   0.47232   0.67142   0.00000  Uiso   1.00
C109   C     0.92141   0.51183   0.63140   0.00000  Uiso   1.00
C110   C     0.68189   0.51520   0.72525   0.00000  Uiso   1.00
C111   C     0.62390   0.47996   0.68487   0.00000  Uiso   1.00
C112   C     0.56854   0.52295   0.65100   0.00000  Uiso   1.00
C113   C     0.75242   0.50539   0.86492   0.00000  Uiso   1.00
C114   C     0.75371   0.46191   0.94197   0.00000  Uiso   1.00
C115   C     0.75770   0.49666   0.02569   0.00000  Uiso   1.00
H116   H     0.75496   0.67659   0.78329   0.00000  Uiso   1.00
H117   H     0.87333   0.68456   0.68922   0.00000  Uiso   1.00
H118   H     0.63123   0.69219   0.70268   0.00000  Uiso   1.00
H119   H     0.76102   0.67415   0.95974   0.00000  Uiso   1.00
H120   H     0.00339   0.66010   0.58211   0.00000  Uiso   1.00
H121   H     0.49291   0.67619   0.61051   0.00000  Uiso   1.00
H122   H     0.76658   0.63815   0.15257   0.00000  Uiso   1.00
H123   H     0.74612   0.42000   0.76179   0.00000  Uiso   1.00
H124   H     0.86400   0.41389   0.66654   0.00000  Uiso   1.00
H125   H     0.62191   0.42152   0.67999   0.00000  Uiso   1.00
H126   H     0.75169   0.40348   0.93705   0.00000  Uiso   1.00
H127   H     0.99582   0.44041   0.56369   0.00000  Uiso   1.00
H128   H     0.48534   0.45650   0.59209   0.00000  Uiso   1.00
H129   H     0.75901   0.41846   0.13415   0.00000  Uiso   1.00
O130   O     0.07730   0.55087   0.51060   0.00000  Uiso   1.00
O131   O     0.40756   0.57197   0.54788   0.00000  Uiso   1.00
O132   O     0.76662   0.52207   0.25905   0.00000  Uiso   1.00
N133   N     0.98544   0.60923   0.59086   0.00000  Uiso   1.00
N134   N     0.50817   0.62427   0.61740   0.00000  Uiso   1.00
N135   N     0.76402   0.58871   0.12418   0.00000  Uiso   1.00
N136   N     0.98137   0.49102   0.58095   0.00000  Uiso   1.00
N137   N     0.50410   0.50606   0.60749   0.00000  Uiso   1.00
N138   N     0.75995   0.47050   0.11427   0.00000  Uiso   1.00
C139   C     0.24706   0.38219   0.27837   0.00000  Uiso   1.00
C140   C     0.18397   0.41344   0.22428   0.00000  Uiso   1.00
C141   C     0.12867   0.37387   0.18432   0.00000  Uiso   1.00
C142   C     0.07599   0.41253   0.13774   0.00000  Uiso   1.00
C143   C     0.97765   0.44956   0.05468   0.00000  Uiso   1.00
C144   C     0.31551   0.40930   0.23158   0.00000  Uiso   1.00
C145   C     0.37079   0.36624   0.19776   0.00000  Uiso   1.00
C146   C     0.42885   0.40141   0.15734   0.00000  Uiso   1.00
C147   C     0.53475   0.43201   0.08567   0.00000  Uiso   1.00
C148   C     0.24498   0.41910   0.37125   0.00000  Uiso   1.00
C149   C     0.24100   0.38428   0.45487   0.00000  Uiso   1.00
C150   C     0.23969   0.42770   0.53203   0.00000  Uiso   1.00
C151   C     0.23609   0.47352   0.67722   0.00000  Uiso   1.00
C152   C     0.25185   0.52121   0.26672   0.00000  Uiso   1.00
C153   C     0.18658   0.48895   0.21795   0.00000  Uiso   1.00
C154   C     0.13397   0.52768   0.17142   0.00000  Uiso   1.00
C155   C     0.07859   0.48817   0.13140   0.00000  Uiso   1.00
C156   C     0.31811   0.48480   0.22525   0.00000  Uiso   1.00
C157   C     0.37610   0.52004   0.18487   0.00000  Uiso   1.00
C158   C     0.43146   0.47705   0.15100   0.00000  Uiso   1.00
C159   C     0.24758   0.49461   0.36492   0.00000  Uiso   1.00
C160   C     0.24629   0.53809   0.44197   0.00000  Uiso   1.00
C161   C     0.24230   0.50334   0.52569   0.00000  Uiso   1.00
H162   H     0.24504   0.32341   0.28329   0.00000  Uiso   1.00
H163   H     0.12667   0.31544   0.18922   0.00000  Uiso   1.00
H164   H     0.36877   0.30781   0.20268   0.00000  Uiso   1.00
H165   H     0.23898   0.32585   0.45974   0.00000  Uiso   1.00
H166   H     0.99661   0.33990   0.08211   0.00000  Uiso   1.00
H167   H     0.50709   0.32381   0.11051   0.00000  Uiso   1.00
H168   H     0.23342   0.36185   0.65257   0.00000  Uiso   1.00
H169   H     0.25388   0.58000   0.26179   0.00000  Uiso   1.00
H170   H     0.13600   0.58611   0.16654   0.00000  Uiso   1.00
H171   H     0.37809   0.57848   0.17999   0.00000  Uiso   1.00
H172   H     0.24831   0.59652   0.43705   0.00000  Uiso   1.00
H173   H     0.00418   0.55959   0.06369   0.00000  Uiso   1.00
H174   H     0.51466   0.54350   0.09209   0.00000  Uiso   1.00
H175   H     0.24099   0.58154   0.63415   0.00000  Uiso   1.00
O176   O     0.92270   0.44913   0.01060   0.00000  Uiso   1.00
O177   O     0.59244   0.42803   0.04788   0.00000  Uiso   1.00
O178   O     0.23338   0.47793   0.75905   0.00000  Uiso   1.00
N179   N     0.01456   0.39077   0.09086   0.00000  Uiso   1.00
N180   N     0.49183   0.37573   0.11740   0.00000  Uiso   1.00
N181   N     0.23598   0.41129   0.62418   0.00000  Uiso   1.00
N182   N     0.01863   0.50898   0.08095   0.00000  Uiso   1.00
N183   N     0.49590   0.49394   0.10749   0.00000  Uiso   1.00
N184   N     0.24005   0.52950   0.61427   0.00000  Uiso   1.00
C185   C     0.38219   0.24706   0.72163   0.00000  Uiso   1.00
C186   C     0.41344   0.18397   0.77572   0.00000  Uiso   1.00
C187   C     0.37387   0.12867   0.81568   0.00000  Uiso   1.00
C188   C     0.41253   0.07599   0.86226   0.00000  Uiso   1.00
C189   C     0.44956   0.97765   0.94532   0.00000  Uiso   1.00
C190   C     0.40930   0.31551   0.76842   0.00000  Uiso   1.00
C191   C     0.36624   0.37079   0.80224   0.00000  Uiso   1.00
C192   C     0.40141   0.42885   0.84266   0.00000  Uiso   1.00
C193   C     0.43201   0.53475   0.91433   0.00000  Uiso   1.00
C194   C     0.41910   0.24498   0.62875   0.00000  Uiso   1.00
C195   C     0.38428   0.24100   0.54513   0.00000  Uiso   1.00
C196   C     0.42770   0.23969   0.46797   0.00000  Uiso   1.00
C197   C     0.47352   0.23609   0.32278   0.00000  Uiso   1.00
C198   C     0.52121   0.25185   0.73328   0.00000  Uiso   1.00
C199   C     0.48895   0.18658   0.78205   0.00000  Uiso   1.00
C200   C     0.52768   0.13397   0.82858   0.00000  Uiso   1.00
C201   C     0.48817   0.07859   0.86860   0.00000  Uiso   1.00
C202   C     0.48480   0.31811   0.77475   0.00000  Uiso   1.00
C203   C     0.52004   0.37610   0.81513   0.00000  Uiso   1.00
C204   C     0.47705   0.43146   0.84900   0.00000  Uiso   1.00
C205   C     0.49461   0.24758   0.63508   0.00000  Uiso   1.00
C206   C     0.53809   0.24629   0.55803   0.00000  Uiso   1.00
C207   C     0.50334   0.24230   0.47431   0.00000  Uiso   1.00
H208   H     0.32341   0.24504   0.71671   0.00000  Uiso   1.00
H209   H     0.31544   0.12667   0.81078   0.00000  Uiso   1.00
H210   H     0.30781   0.36877   0.79732   0.00000  Uiso   1.00
H211   H     0.32585   0.23898   0.54026   0.00000  Uiso   1.00
H212   H     0.33990   0.99661   0.91789   0.00000  Uiso   1.00
H213   H     0.32381   0.50709   0.88949   0.00000  Uiso   1.00
H214   H     0.36185   0.23342   0.34743   0.00000  Uiso   1.00
H215   H     0.58000   0.25388   0.73821   0.00000  Uiso   1.00
H216   H     0.58611   0.13600   0.83346   0.00000  Uiso   1.00
H217   H     0.57848   0.37809   0.82001   0.00000  Uiso   1.00
H218   H     0.59652   0.24831   0.56295   0.00000  Uiso   1.00
H219   H     0.55959   0.00418   0.93631   0.00000  Uiso   1.00
H220   H     0.54350   0.51466   0.90791   0.00000  Uiso   1.00
H221   H     0.58154   0.24099   0.36585   0.00000  Uiso   1.00
O222   O     0.44913   0.92270   0.98940   0.00000  Uiso   1.00
O223   O     0.42803   0.59244   0.95212   0.00000  Uiso   1.00
O224   O     0.47793   0.23338   0.24095   0.00000  Uiso   1.00
N225   N     0.39077   0.01456   0.90914   0.00000  Uiso   1.00
N226   N     0.37573   0.49183   0.88260   0.00000  Uiso   1.00
N227   N     0.41129   0.23598   0.37582   0.00000  Uiso   1.00
N228   N     0.50898   0.01863   0.91905   0.00000  Uiso   1.00
N229   N     0.49394   0.49590   0.89251   0.00000  Uiso   1.00
N230   N     0.52950   0.24005   0.38573   0.00000  Uiso   1.00
C231   C     0.61781   0.75294   0.22163   0.00000  Uiso   1.00
C232   C     0.58656   0.81603   0.27572   0.00000  Uiso   1.00
C233   C     0.62613   0.87133   0.31568   0.00000  Uiso   1.00
C234   C     0.58747   0.92401   0.36226   0.00000  Uiso   1.00
C235   C     0.55044   0.02235   0.44532   0.00000  Uiso   1.00
C236   C     0.59070   0.68449   0.26842   0.00000  Uiso   1.00
C237   C     0.63376   0.62921   0.30224   0.00000  Uiso   1.00
C238   C     0.59859   0.57115   0.34266   0.00000  Uiso   1.00
C239   C     0.56799   0.46525   0.41433   0.00000  Uiso   1.00
C240   C     0.58090   0.75502   0.12875   0.00000  Uiso   1.00
C241   C     0.61572   0.75900   0.04513   0.00000  Uiso   1.00
C242   C     0.57230   0.76031   0.96797   0.00000  Uiso   1.00
C243   C     0.52648   0.76391   0.82278   0.00000  Uiso   1.00
C244   C     0.47879   0.74815   0.23328   0.00000  Uiso   1.00
C245   C     0.51105   0.81342   0.28205   0.00000  Uiso   1.00
C246   C     0.47232   0.86603   0.32858   0.00000  Uiso   1.00
C247   C     0.51183   0.92141   0.36860   0.00000  Uiso   1.00
C248   C     0.51520   0.68189   0.27475   0.00000  Uiso   1.00
C249   C     0.47996   0.62390   0.31513   0.00000  Uiso   1.00
C250   C     0.52295   0.56854   0.34900   0.00000  Uiso   1.00
C251   C     0.50539   0.75242   0.13508   0.00000  Uiso   1.00
C252   C     0.46191   0.75371   0.05803   0.00000  Uiso   1.00
C253   C     0.49666   0.75770   0.97431   0.00000  Uiso   1.00
H254   H     0.67659   0.75496   0.21671   0.00000  Uiso   1.00
H255   H     0.68456   0.87333   0.31078   0.00000  Uiso   1.00
H256   H     0.69219   0.63123   0.29732   0.00000  Uiso   1.00
H257   H     0.67415   0.76102   0.04026   0.00000  Uiso   1.00
H258   H     0.66010   0.00339   0.41789   0.00000  Uiso   1.00
H259   H     0.67619   0.49291   0.38949   0.00000  Uiso   1.00
H260   H     0.63815   0.76658   0.84743   0.00000  Uiso   1.00
H261   H     0.42000   0.74612   0.23821   0.00000  Uiso   1.00
H262   H     0.41389   0.86400   0.33346   0.00000  Uiso   1.00
H263   H     0.42152   0.62191   0.32001   0.00000  Uiso   1.00
H264   H     0.40348   0.75169   0.06295   0.00000  Uiso   1.00
H265   H     0.44041   0.99582   0.43631   0.00000  Uiso   1.00
H266   H     0.45650   0.48534   0.40791   0.00000  Uiso   1.00
H267   H     0.41846   0.75901   0.86585   0.00000  Uiso   1.00
O268   O     0.55087   0.07730   0.48940   0.00000  Uiso   1.00
O269   O     0.57197   0.40756   0.45212   0.00000  Uiso   1.00
O270   O     0.52207   0.76662   0.74095   0.00000  Uiso   1.00
N271   N     0.60923   0.98544   0.40914   0.00000  Uiso   1.00
N272   N     0.62427   0.50817   0.38260   0.00000  Uiso   1.00
N273   N     0.58871   0.76402   0.87582   0.00000  Uiso   1.00
N274   N     0.49102   0.98137   0.41905   0.00000  Uiso   1.00
N275   N     0.50606   0.50410   0.39251   0.00000  Uiso   1.00
N276   N     0.47050   0.75995   0.88573   0.00000  Uiso   1.00
C277   C     0.74706   0.11781   0.97163   0.00000  Uiso   1.00
C278   C     0.68397   0.08656   0.02572   0.00000  Uiso   1.00
C279   C     0.62867   0.12613   0.06568   0.00000  Uiso   1.00
C280   C     0.57599   0.08747   0.11226   0.00000  Uiso   1.00
C281   C     0.47765   0.05044   0.19532   0.00000  Uiso   1.00
C282   C     0.81551   0.09070   0.01842   0.00000  Uiso   1.00
C283   C     0.87079   0.13376   0.05224   0.00000  Uiso   1.00
C284   C     0.92885   0.09859   0.09266   0.00000  Uiso   1.00
C285   C     0.03475   0.06799   0.16433   0.00000  Uiso   1.00
C286   C     0.74498   0.08090   0.87875   0.00000  Uiso   1.00
C287   C     0.74100   0.11572   0.79513   0.00000  Uiso   1.00
C288   C     0.73969   0.07230   0.71797   0.00000  Uiso   1.00
C289   C     0.73609   0.02648   0.57278   0.00000  Uiso   1.00
C290   C     0.75185   0.97879   0.98328   0.00000  Uiso   1.00
C291   C     0.68658   0.01105   0.03205   0.00000  Uiso   1.00
C292   C     0.63397   0.97232   0.07858   0.00000  Uiso   1.00
C293   C     0.57859   0.01183   0.11860   0.00000  Uiso   1.00
C294   C     0.81811   0.01520   0.02475   0.00000  Uiso   1.00
C295   C     0.87610   0.97996   0.06513   0.00000  Uiso   1.00
C296   C     0.93146   0.02295   0.09900   0.00000  Uiso   1.00
C297   C     0.74758   0.00539   0.88508   0.00000  Uiso   1.00
C298   C     0.74629   0.96191   0.80803   0.00000  Uiso   1.00
C299   C     0.74230   0.99666   0.72431   0.00000  Uiso   1.00
H300   H     0.74504   0.17659   0.96671   0.00000  Uiso   1.00
H301   H     0.62667   0.18456   0.06078   0.00000  Uiso   1.00
H302   H     0.86877   0.19219   0.04732   0.00000  Uiso   1.00
H303   H     0.73898   0.17415   0.79026   0.00000  Uiso   1.00
H304   H     0.49661   0.16010   0.16789   0.00000  Uiso   1.00
H305   H     0.00709   0.17619   0.13949   0.00000  Uiso   1.00
H306   H     0.73342   0.13815   0.59743   0.00000  Uiso   1.00
H307   H     0.75388   0.92000   0.98821   0.00000  Uiso   1.00
H308   H     0.63600   0.91389   0.08346   0.00000  Uiso   1.00
H309   H     0.87809   0.92152   0.07001   0.00000  Uiso   1.00
H310   H     0.74831   0.90348   0.81295   0.00000  Uiso   1.00
H311   H     0.50418   0.94041   0.18631   0.00000  Uiso   1.00
H312   H     0.01466   0.95650   0.15791   0.00000  Uiso   1.00
H313   H     0.74099   0.91846   0.61585   0.00000  Uiso   1.00
O314   O     0.42270   0.05087   0.23940   0.00000  Uiso   1.00
O315   O     0.09244   0.07197   0.20212   0.00000  Uiso   1.00
O316   O     0.73338   0.02207   0.49095   0.00000  Uiso   1.00
N317   N     0.51456   0.10923   0.15914   0.00000  Uiso   1.00
N318   N     0.99183   0.12427   0.13260   0.00000  Uiso   1.00
N319   N     0.73598   0.08871   0.62582   0.00000  Uiso   1.00
N320   N     0.51863   0.99102   0.16905   0.00000  Uiso   1.00
N321   N     0.99590   0.00606   0.14251   0.00000  Uiso   1.00
N322   N     0.74005   0.97050   0.63573   0.00000  Uiso   1.00
C323   C     0.25294   0.88219   0.47163   0.00000  Uiso   1.00
C324   C     0.31603   0.91344   0.52572   0.00000  Uiso   1.00
C325   C     0.37133   0.87387   0.56568   0.00000  Uiso   1.00
C326   C     0.42401   0.91253   0.61226   0.00000  Uiso   1.00
C327   C     0.52235   0.94956   0.69532   0.00000  Uiso   1.00
C328   C     0.18449   0.90930   0.51842   0.00000  Uiso   1.00
C329   C     0.12921   0.86624   0.55224   0.00000  Uiso   1.00
C330   C     0.07115   0.90141   0.59266   0.00000  Uiso   1.00
C331   C     0.96525   0.93201   0.66433   0.00000  Uiso   1.00
C332   C     0.25502   0.91910   0.37875   0.00000  Uiso   1.00
C333   C     0.25900   0.88428   0.29513   0.00000  Uiso   1.00
C334   C     0.26031   0.92770   0.21797   0.00000  Uiso   1.00
C335   C     0.26391   0.97352   0.07278   0.00000  Uiso   1.00
C336   C     0.24815   0.02121   0.48328   0.00000  Uiso   1.00
C337   C     0.31342   0.98895   0.53205   0.00000  Uiso   1.00
C338   C     0.36603   0.02768   0.57858   0.00000  Uiso   1.00
C339   C     0.42141   0.98817   0.61860   0.00000  Uiso   1.00
C340   C     0.18189   0.98480   0.52475   0.00000  Uiso   1.00
C341   C     0.12390   0.02004   0.56513   0.00000  Uiso   1.00
C342   C     0.06854   0.97705   0.59900   0.00000  Uiso   1.00
C343   C     0.25242   0.99461   0.38508   0.00000  Uiso   1.00
C344   C     0.25371   0.03809   0.30803   0.00000  Uiso   1.00
C345   C     0.25770   0.00334   0.22431   0.00000  Uiso   1.00
H346   H     0.25496   0.82341   0.46671   0.00000  Uiso   1.00
H347   H     0.37333   0.81544   0.56078   0.00000  Uiso   1.00
H348   H     0.13123   0.80781   0.54732   0.00000  Uiso   1.00
H349   H     0.26102   0.82585   0.29026   0.00000  Uiso   1.00
H350   H     0.50339   0.83990   0.66789   0.00000  Uiso   1.00
H351   H     0.99291   0.82381   0.63949   0.00000  Uiso   1.00
H352   H     0.26658   0.86185   0.09743   0.00000  Uiso   1.00
H353   H     0.24612   0.08000   0.48821   0.00000  Uiso   1.00
H354   H     0.36400   0.08611   0.58346   0.00000  Uiso   1.00
H355   H     0.12191   0.07848   0.57001   0.00000  Uiso   1.00
H356   H     0.25169   0.09652   0.31295   0.00000  Uiso   1.00
H357   H     0.49582   0.05959   0.68631   0.00000  Uiso   1.00
H358   H     0.98534   0.04350   0.65791   0.00000  Uiso   1.00
H359   H     0.25901   0.08154   0.11585   0.00000  Uiso   1.00
O360   O     0.57730   0.94913   0.73940   0.00000  Uiso   1.00
O361   O     0.90756   0.92803   0.70212   0.00000  Uiso   1.00
O362   O     0.26662   0.97793   0.99095   0.00000  Uiso   1.00
N363   N     0.48544   0.89077   0.65914   0.00000  Uiso   1.00
N364   N     0.00817   0.87573   0.63260   0.00000  Uiso   1.00
N365   N     0.26402   0.91129   0.12582   0.00000  Uiso   1.00
N366   N     0.48137   0.00898   0.66905   0.00000  Uiso   1.00
N367   N     0.00410   0.99394   0.64251   0.00000  Uiso   1.00
N368   N     0.25995   0.02950   0.13573   0.00000  Uiso   1.00
