data_job_01453
_audit_creation_date              2018-12-19
_audit_creation_method            'Materials Studio'
_symmetry_space_group_name_H-M    'P1'
_symmetry_Int_Tables_number       1
_symmetry_cell_setting            triclinic
loop_
_symmetry_equiv_pos_as_xyz
  x,y,z
_cell_length_a                    7.6544
_cell_length_b                    14.5324
_cell_length_c                    20.4731
_cell_angle_alpha                 90.0000
_cell_angle_beta                  90.0000
_cell_angle_gamma                 90.0000
loop_
_atom_site_label
_atom_site_type_symbol
_atom_site_fract_x
_atom_site_fract_y
_atom_site_fract_z
_atom_site_U_iso_or_equiv
_atom_site_adp_type
_atom_site_occupancy
C1     C     0.66195   0.98319   0.23413   0.00000  Uiso   1.00
C2     C     0.49025   0.02832   0.21410   0.00000  Uiso   1.00
C3     C     0.47300   0.11383   0.18462   0.00000  Uiso   1.00
C4     C     0.30462   0.14292   0.17015   0.00000  Uiso   1.00
C5     C     0.06019   0.22131   0.13687   0.00000  Uiso   1.00
C6     C     0.64533   0.96231   0.30686   0.00000  Uiso   1.00
C7     C     0.75848   0.99230   0.35536   0.00000  Uiso   1.00
C8     C     0.72065   0.96580   0.41896   0.00000  Uiso   1.00
C9     C     0.71704   0.94164   0.52969   0.00000  Uiso   1.00
C10    C     0.66637   0.89015   0.19974   0.00000  Uiso   1.00
C11    C     0.79723   0.85946   0.15818   0.00000  Uiso   1.00
C12    C     0.77713   0.77219   0.13161   0.00000  Uiso   1.00
C13    C     0.80620   0.63600   0.07601   0.00000  Uiso   1.00
C14    C     0.39359   0.88279   0.26084   0.00000  Uiso   1.00
C15    C     0.34449   0.97379   0.22862   0.00000  Uiso   1.00
C16    C     0.17609   0.00275   0.21418   0.00000  Uiso   1.00
C17    C     0.15860   0.08828   0.18468   0.00000  Uiso   1.00
C18    C     0.49957   0.90777   0.32137   0.00000  Uiso   1.00
C19    C     0.46157   0.88121   0.38491   0.00000  Uiso   1.00
C20    C     0.57462   0.91116   0.43350   0.00000  Uiso   1.00
C21    C     0.52060   0.83561   0.21424   0.00000  Uiso   1.00
C22    C     0.50031   0.74837   0.18774   0.00000  Uiso   1.00
C23    C     0.63111   0.71756   0.14615   0.00000  Uiso   1.00
H24    H     0.77543   0.02565   0.22284   0.00000  Uiso   1.00
H25    H     0.58584   0.15602   0.17341   0.00000  Uiso   1.00
H26    H     0.87128   0.03450   0.34411   0.00000  Uiso   1.00
H27    H     0.91001   0.90168   0.14697   0.00000  Uiso   1.00
H28    H     0.31135   0.27652   0.12503   0.00000  Uiso   1.00
H29    H     0.91324   0.02026   0.48497   0.00000  Uiso   1.00
H30    H     0.99493   0.74018   0.06925   0.00000  Uiso   1.00
H31    H     0.28011   0.84033   0.27214   0.00000  Uiso   1.00
H32    H     0.06332   0.96053   0.22541   0.00000  Uiso   1.00
H33    H     0.34876   0.83900   0.39612   0.00000  Uiso   1.00
H34    H     0.38750   0.70619   0.19897   0.00000  Uiso   1.00
H35    H     0.88726   0.11786   0.16724   0.00000  Uiso   1.00
H36    H     0.48916   0.86158   0.52718   0.00000  Uiso   1.00
H37    H     0.57084   0.58151   0.11146   0.00000  Uiso   1.00
O38    O     0.96563   0.27962   0.11452   0.00000  Uiso   1.00
O39    O     0.75531   0.94339   0.58675   0.00000  Uiso   1.00
O40    O     0.86248   0.57595   0.04133   0.00000  Uiso   1.00
N41    N     0.24129   0.22268   0.14136   0.00000  Uiso   1.00
N42    N     0.80401   0.98309   0.47789   0.00000  Uiso   1.00
N43    N     0.88041   0.72124   0.08924   0.00000  Uiso   1.00
N44    N     0.01309   0.13730   0.16407   0.00000  Uiso   1.00
N45    N     0.57581   0.89772   0.50060   0.00000  Uiso   1.00
N46    N     0.65221   0.63586   0.11195   0.00000  Uiso   1.00
C47    C     0.83805   0.01681   0.73413   0.00000  Uiso   1.00
C48    C     0.00975   0.97168   0.71410   0.00000  Uiso   1.00
C49    C     0.02700   0.88617   0.68462   0.00000  Uiso   1.00
C50    C     0.19538   0.85708   0.67015   0.00000  Uiso   1.00
C51    C     0.43981   0.77869   0.63687   0.00000  Uiso   1.00
C52    C     0.85467   0.03769   0.80686   0.00000  Uiso   1.00
C53    C     0.74152   0.00770   0.85536   0.00000  Uiso   1.00
C54    C     0.77935   0.03420   0.91896   0.00000  Uiso   1.00
C55    C     0.78296   0.05836   0.02969   0.00000  Uiso   1.00
C56    C     0.83363   0.10985   0.69974   0.00000  Uiso   1.00
C57    C     0.70277   0.14054   0.65818   0.00000  Uiso   1.00
C58    C     0.72287   0.22781   0.63161   0.00000  Uiso   1.00
C59    C     0.69380   0.36400   0.57601   0.00000  Uiso   1.00
C60    C     0.10641   0.11721   0.76084   0.00000  Uiso   1.00
C61    C     0.15551   0.02621   0.72862   0.00000  Uiso   1.00
C62    C     0.32391   0.99725   0.71418   0.00000  Uiso   1.00
C63    C     0.34140   0.91172   0.68468   0.00000  Uiso   1.00
C64    C     0.00043   0.09223   0.82137   0.00000  Uiso   1.00
C65    C     0.03843   0.11879   0.88491   0.00000  Uiso   1.00
C66    C     0.92538   0.08884   0.93350   0.00000  Uiso   1.00
C67    C     0.97940   0.16439   0.71424   0.00000  Uiso   1.00
C68    C     0.99969   0.25163   0.68774   0.00000  Uiso   1.00
C69    C     0.86889   0.28244   0.64615   0.00000  Uiso   1.00
H70    H     0.72457   0.97435   0.72284   0.00000  Uiso   1.00
H71    H     0.91416   0.84398   0.67341   0.00000  Uiso   1.00
H72    H     0.62872   0.96550   0.84411   0.00000  Uiso   1.00
H73    H     0.58999   0.09832   0.64697   0.00000  Uiso   1.00
H74    H     0.18865   0.72348   0.62503   0.00000  Uiso   1.00
H75    H     0.58676   0.97974   0.98497   0.00000  Uiso   1.00
H76    H     0.50507   0.25982   0.56925   0.00000  Uiso   1.00
H77    H     0.21989   0.15967   0.77214   0.00000  Uiso   1.00
H78    H     0.43668   0.03947   0.72541   0.00000  Uiso   1.00
H79    H     0.15124   0.16100   0.89612   0.00000  Uiso   1.00
H80    H     0.11250   0.29381   0.69897   0.00000  Uiso   1.00
H81    H     0.61274   0.88214   0.66724   0.00000  Uiso   1.00
H82    H     0.01084   0.13842   0.02718   0.00000  Uiso   1.00
H83    H     0.92916   0.41849   0.61146   0.00000  Uiso   1.00
O84    O     0.53437   0.72038   0.61452   0.00000  Uiso   1.00
O85    O     0.74469   0.05661   0.08675   0.00000  Uiso   1.00
O86    O     0.63752   0.42405   0.54133   0.00000  Uiso   1.00
N87    N     0.25871   0.77732   0.64136   0.00000  Uiso   1.00
N88    N     0.69599   0.01691   0.97789   0.00000  Uiso   1.00
N89    N     0.61959   0.27876   0.58924   0.00000  Uiso   1.00
N90    N     0.48691   0.86270   0.66407   0.00000  Uiso   1.00
N91    N     0.92419   0.10228   0.00060   0.00000  Uiso   1.00
N92    N     0.84779   0.36414   0.61195   0.00000  Uiso   1.00
C93    C     0.33805   0.48319   0.26587   0.00000  Uiso   1.00
C94    C     0.50975   0.52832   0.28590   0.00000  Uiso   1.00
C95    C     0.52700   0.61383   0.31538   0.00000  Uiso   1.00
C96    C     0.69538   0.64292   0.32985   0.00000  Uiso   1.00
C97    C     0.93981   0.72131   0.36313   0.00000  Uiso   1.00
C98    C     0.35467   0.46231   0.19314   0.00000  Uiso   1.00
C99    C     0.24152   0.49230   0.14464   0.00000  Uiso   1.00
C100   C     0.27935   0.46580   0.08104   0.00000  Uiso   1.00
C101   C     0.28296   0.44164   0.97031   0.00000  Uiso   1.00
C102   C     0.33363   0.39015   0.30026   0.00000  Uiso   1.00
C103   C     0.20277   0.35946   0.34182   0.00000  Uiso   1.00
C104   C     0.22287   0.27219   0.36839   0.00000  Uiso   1.00
C105   C     0.19380   0.13600   0.42399   0.00000  Uiso   1.00
C106   C     0.60641   0.38279   0.23916   0.00000  Uiso   1.00
C107   C     0.65551   0.47379   0.27138   0.00000  Uiso   1.00
C108   C     0.82391   0.50275   0.28582   0.00000  Uiso   1.00
C109   C     0.84140   0.58828   0.31532   0.00000  Uiso   1.00
C110   C     0.50043   0.40777   0.17863   0.00000  Uiso   1.00
C111   C     0.53843   0.38121   0.11509   0.00000  Uiso   1.00
C112   C     0.42538   0.41116   0.06650   0.00000  Uiso   1.00
C113   C     0.47940   0.33561   0.28576   0.00000  Uiso   1.00
C114   C     0.49969   0.24837   0.31226   0.00000  Uiso   1.00
C115   C     0.36889   0.21756   0.35385   0.00000  Uiso   1.00
H116   H     0.22457   0.52565   0.27716   0.00000  Uiso   1.00
H117   H     0.41416   0.65602   0.32659   0.00000  Uiso   1.00
H118   H     0.12872   0.53450   0.15589   0.00000  Uiso   1.00
H119   H     0.08999   0.40168   0.35303   0.00000  Uiso   1.00
H120   H     0.68865   0.77652   0.37497   0.00000  Uiso   1.00
H121   H     0.08676   0.52026   0.01503   0.00000  Uiso   1.00
H122   H     0.00507   0.24018   0.43075   0.00000  Uiso   1.00
H123   H     0.71989   0.34033   0.22786   0.00000  Uiso   1.00
H124   H     0.93668   0.46053   0.27459   0.00000  Uiso   1.00
H125   H     0.65124   0.33900   0.10388   0.00000  Uiso   1.00
H126   H     0.61250   0.20619   0.30103   0.00000  Uiso   1.00
H127   H     0.11274   0.61786   0.33276   0.00000  Uiso   1.00
H128   H     0.51084   0.36158   0.97282   0.00000  Uiso   1.00
H129   H     0.42916   0.08151   0.38854   0.00000  Uiso   1.00
O130   O     0.03437   0.77962   0.38548   0.00000  Uiso   1.00
O131   O     0.24469   0.44339   0.91325   0.00000  Uiso   1.00
O132   O     0.13752   0.07595   0.45867   0.00000  Uiso   1.00
N133   N     0.75871   0.72268   0.35864   0.00000  Uiso   1.00
N134   N     0.19599   0.48309   0.02211   0.00000  Uiso   1.00
N135   N     0.11959   0.22124   0.41076   0.00000  Uiso   1.00
N136   N     0.98691   0.63730   0.33593   0.00000  Uiso   1.00
N137   N     0.42419   0.39772   0.99940   0.00000  Uiso   1.00
N138   N     0.34779   0.13586   0.38805   0.00000  Uiso   1.00
C139   C     0.16195   0.51681   0.76587   0.00000  Uiso   1.00
C140   C     0.99025   0.47168   0.78590   0.00000  Uiso   1.00
C141   C     0.97300   0.38617   0.81538   0.00000  Uiso   1.00
C142   C     0.80462   0.35708   0.82985   0.00000  Uiso   1.00
C143   C     0.56019   0.27869   0.86313   0.00000  Uiso   1.00
C144   C     0.14533   0.53769   0.69314   0.00000  Uiso   1.00
C145   C     0.25848   0.50770   0.64464   0.00000  Uiso   1.00
C146   C     0.22065   0.53420   0.58104   0.00000  Uiso   1.00
C147   C     0.21704   0.55836   0.47031   0.00000  Uiso   1.00
C148   C     0.16637   0.60985   0.80026   0.00000  Uiso   1.00
C149   C     0.29723   0.64054   0.84182   0.00000  Uiso   1.00
C150   C     0.27713   0.72781   0.86839   0.00000  Uiso   1.00
C151   C     0.30620   0.86400   0.92399   0.00000  Uiso   1.00
C152   C     0.89359   0.61721   0.73916   0.00000  Uiso   1.00
C153   C     0.84449   0.52621   0.77138   0.00000  Uiso   1.00
C154   C     0.67609   0.49725   0.78582   0.00000  Uiso   1.00
C155   C     0.65860   0.41172   0.81532   0.00000  Uiso   1.00
C156   C     0.99957   0.59223   0.67863   0.00000  Uiso   1.00
C157   C     0.96157   0.61879   0.61509   0.00000  Uiso   1.00
C158   C     0.07462   0.58884   0.56650   0.00000  Uiso   1.00
C159   C     0.02060   0.66439   0.78576   0.00000  Uiso   1.00
C160   C     0.00031   0.75163   0.81226   0.00000  Uiso   1.00
C161   C     0.13111   0.78244   0.85385   0.00000  Uiso   1.00
H162   H     0.27543   0.47435   0.77716   0.00000  Uiso   1.00
H163   H     0.08584   0.34398   0.82659   0.00000  Uiso   1.00
H164   H     0.37128   0.46550   0.65589   0.00000  Uiso   1.00
H165   H     0.41001   0.59832   0.85303   0.00000  Uiso   1.00
H166   H     0.81135   0.22348   0.87497   0.00000  Uiso   1.00
H167   H     0.41324   0.47974   0.51503   0.00000  Uiso   1.00
H168   H     0.49493   0.75982   0.93075   0.00000  Uiso   1.00
H169   H     0.78011   0.65967   0.72786   0.00000  Uiso   1.00
H170   H     0.56332   0.53947   0.77459   0.00000  Uiso   1.00
H171   H     0.84876   0.66100   0.60388   0.00000  Uiso   1.00
H172   H     0.88750   0.79381   0.80103   0.00000  Uiso   1.00
H173   H     0.38726   0.38214   0.83276   0.00000  Uiso   1.00
H174   H     0.98916   0.63842   0.47282   0.00000  Uiso   1.00
H175   H     0.07084   0.91849   0.88854   0.00000  Uiso   1.00
O176   O     0.46563   0.22038   0.88548   0.00000  Uiso   1.00
O177   O     0.25531   0.55661   0.41325   0.00000  Uiso   1.00
O178   O     0.36248   0.92405   0.95867   0.00000  Uiso   1.00
N179   N     0.74129   0.27732   0.85864   0.00000  Uiso   1.00
N180   N     0.30401   0.51691   0.52211   0.00000  Uiso   1.00
N181   N     0.38041   0.77876   0.91076   0.00000  Uiso   1.00
N182   N     0.51309   0.36270   0.83593   0.00000  Uiso   1.00
N183   N     0.07581   0.60228   0.49940   0.00000  Uiso   1.00
N184   N     0.15221   0.86414   0.88805   0.00000  Uiso   1.00
