data_job_03868
_audit_creation_date              2018-12-19
_audit_creation_method            'Materials Studio'
_symmetry_space_group_name_H-M    'P1'
_symmetry_Int_Tables_number       1
_symmetry_cell_setting            triclinic
loop_
_symmetry_equiv_pos_as_xyz
  x,y,z
_cell_length_a                    16.2602
_cell_length_b                    10.8178
_cell_length_c                    18.0672
_cell_angle_alpha                 90.0000
_cell_angle_beta                  57.0484
_cell_angle_gamma                 90.0000
loop_
_atom_site_label
_atom_site_type_symbol
_atom_site_fract_x
_atom_site_fract_y
_atom_site_fract_z
_atom_site_U_iso_or_equiv
_atom_site_adp_type
_atom_site_occupancy
C1     C     0.25852   0.50514   0.31742   0.00000  Uiso   1.00
C2     C     0.35387   0.56706   0.24701   0.00000  Uiso   1.00
C3     C     0.43960   0.57169   0.24628   0.00000  Uiso   1.00
C4     C     0.51883   0.63274   0.17604   0.00000  Uiso   1.00
C5     C     0.66785   0.72067   0.07693   0.00000  Uiso   1.00
C6     C     0.17977   0.60492   0.35178   0.00000  Uiso   1.00
C7     C     0.11912   0.64137   0.43915   0.00000  Uiso   1.00
C8     C     0.05178   0.73428   0.45711   0.00000  Uiso   1.00
C9     C     0.93046   0.88093   0.52067   0.00000  Uiso   1.00
C10    C     0.23386   0.41209   0.26889   0.00000  Uiso   1.00
C11    C     0.21865   0.28639   0.28658   0.00000  Uiso   1.00
C12    C     0.19682   0.21695   0.23476   0.00000  Uiso   1.00
C13    C     0.15947   0.06419   0.16963   0.00000  Uiso   1.00
C14    C     0.24678   0.60532   0.19399   0.00000  Uiso   1.00
C15    C     0.34749   0.62148   0.17996   0.00000  Uiso   1.00
C16    C     0.42661   0.68253   0.10971   0.00000  Uiso   1.00
C17    C     0.51245   0.68725   0.10887   0.00000  Uiso   1.00
C18    C     0.17339   0.65934   0.28474   0.00000  Uiso   1.00
C19    C     0.10613   0.75221   0.30258   0.00000  Uiso   1.00
C20    C     0.04539   0.78880   0.38995   0.00000  Uiso   1.00
C21    C     0.22748   0.46650   0.20184   0.00000  Uiso   1.00
C22    C     0.20566   0.39724   0.15000   0.00000  Uiso   1.00
C23    C     0.19043   0.27147   0.16760   0.00000  Uiso   1.00
H24    H     0.26348   0.46278   0.36962   0.00000  Uiso   1.00
H25    H     0.44451   0.52958   0.29818   0.00000  Uiso   1.00
H26    H     0.12406   0.59924   0.49102   0.00000  Uiso   1.00
H27    H     0.22359   0.24432   0.33846   0.00000  Uiso   1.00
H28    H     0.64239   0.62768   0.18942   0.00000  Uiso   1.00
H29    H     0.96669   0.77453   0.59603   0.00000  Uiso   1.00
H30    H     0.17655   0.02611   0.27435   0.00000  Uiso   1.00
H31    H     0.24181   0.64769   0.14179   0.00000  Uiso   1.00
H32    H     0.42166   0.72463   0.05784   0.00000  Uiso   1.00
H33    H     0.10121   0.79430   0.25068   0.00000  Uiso   1.00
H34    H     0.20073   0.43938   0.09813   0.00000  Uiso   1.00
H35    H     0.62384   0.78600   0.99435   0.00000  Uiso   1.00
H36    H     0.94814   0.93285   0.40097   0.00000  Uiso   1.00
H37    H     0.15800   0.18443   0.07928   0.00000  Uiso   1.00
O38    O     0.75180   0.75416   0.04079   0.00000  Uiso   1.00
O39    O     0.86531   0.94680   0.57425   0.00000  Uiso   1.00
O40    O     0.14064   0.96490   0.15221   0.00000  Uiso   1.00
N41    N     0.61335   0.65436   0.15502   0.00000  Uiso   1.00
N42    N     0.98162   0.79167   0.53518   0.00000  Uiso   1.00
N43    N     0.17780   0.09197   0.23445   0.00000  Uiso   1.00
N44    N     0.60337   0.73954   0.05006   0.00000  Uiso   1.00
N45    N     0.97164   0.87686   0.43022   0.00000  Uiso   1.00
N46    N     0.16782   0.17716   0.12949   0.00000  Uiso   1.00
C47    C     0.74148   0.00514   0.18258   0.00000  Uiso   1.00
C48    C     0.64613   0.06706   0.25299   0.00000  Uiso   1.00
C49    C     0.56040   0.07169   0.25372   0.00000  Uiso   1.00
C50    C     0.48117   0.13274   0.32396   0.00000  Uiso   1.00
C51    C     0.33215   0.22067   0.42307   0.00000  Uiso   1.00
C52    C     0.82023   0.10492   0.14822   0.00000  Uiso   1.00
C53    C     0.88088   0.14137   0.06085   0.00000  Uiso   1.00
C54    C     0.94822   0.23428   0.04289   0.00000  Uiso   1.00
C55    C     0.06954   0.38093   0.97933   0.00000  Uiso   1.00
C56    C     0.76614   0.91209   0.23111   0.00000  Uiso   1.00
C57    C     0.78135   0.78639   0.21342   0.00000  Uiso   1.00
C58    C     0.80318   0.71695   0.26524   0.00000  Uiso   1.00
C59    C     0.84053   0.56419   0.33037   0.00000  Uiso   1.00
C60    C     0.75322   0.10532   0.30601   0.00000  Uiso   1.00
C61    C     0.65251   0.12148   0.32004   0.00000  Uiso   1.00
C62    C     0.57339   0.18253   0.39029   0.00000  Uiso   1.00
C63    C     0.48755   0.18725   0.39113   0.00000  Uiso   1.00
C64    C     0.82661   0.15934   0.21526   0.00000  Uiso   1.00
C65    C     0.89387   0.25221   0.19742   0.00000  Uiso   1.00
C66    C     0.95461   0.28880   0.11005   0.00000  Uiso   1.00
C67    C     0.77252   0.96650   0.29816   0.00000  Uiso   1.00
C68    C     0.79434   0.89724   0.35000   0.00000  Uiso   1.00
C69    C     0.80957   0.77147   0.33240   0.00000  Uiso   1.00
H70    H     0.73652   0.96278   0.13038   0.00000  Uiso   1.00
H71    H     0.55549   0.02958   0.20182   0.00000  Uiso   1.00
H72    H     0.87594   0.09924   0.00898   0.00000  Uiso   1.00
H73    H     0.77641   0.74432   0.16154   0.00000  Uiso   1.00
H74    H     0.35761   0.12768   0.31058   0.00000  Uiso   1.00
H75    H     0.03331   0.27453   0.90397   0.00000  Uiso   1.00
H76    H     0.82345   0.52611   0.22565   0.00000  Uiso   1.00
H77    H     0.75819   0.14769   0.35821   0.00000  Uiso   1.00
H78    H     0.57834   0.22463   0.44216   0.00000  Uiso   1.00
H79    H     0.89879   0.29430   0.24932   0.00000  Uiso   1.00
H80    H     0.79927   0.93938   0.40187   0.00000  Uiso   1.00
H81    H     0.37616   0.28600   0.50565   0.00000  Uiso   1.00
H82    H     0.05186   0.43285   0.09903   0.00000  Uiso   1.00
H83    H     0.84200   0.68443   0.42072   0.00000  Uiso   1.00
O84    O     0.24820   0.25416   0.45921   0.00000  Uiso   1.00
O85    O     0.13469   0.44680   0.92575   0.00000  Uiso   1.00
O86    O     0.85936   0.46490   0.34779   0.00000  Uiso   1.00
N87    N     0.38665   0.15436   0.34498   0.00000  Uiso   1.00
N88    N     0.01838   0.29167   0.96482   0.00000  Uiso   1.00
N89    N     0.82220   0.59197   0.26555   0.00000  Uiso   1.00
N90    N     0.39663   0.23954   0.44994   0.00000  Uiso   1.00
N91    N     0.02836   0.37686   0.06978   0.00000  Uiso   1.00
N92    N     0.83218   0.67716   0.37051   0.00000  Uiso   1.00
C93    C     0.74148   0.49486   0.68258   0.00000  Uiso   1.00
C94    C     0.64613   0.43294   0.75299   0.00000  Uiso   1.00
C95    C     0.56040   0.42831   0.75372   0.00000  Uiso   1.00
C96    C     0.48117   0.36726   0.82396   0.00000  Uiso   1.00
C97    C     0.33215   0.27933   0.92307   0.00000  Uiso   1.00
C98    C     0.82023   0.39508   0.64822   0.00000  Uiso   1.00
C99    C     0.88088   0.35863   0.56085   0.00000  Uiso   1.00
C100   C     0.94822   0.26572   0.54289   0.00000  Uiso   1.00
C101   C     0.06954   0.11907   0.47933   0.00000  Uiso   1.00
C102   C     0.76614   0.58791   0.73111   0.00000  Uiso   1.00
C103   C     0.78135   0.71361   0.71342   0.00000  Uiso   1.00
C104   C     0.80318   0.78305   0.76524   0.00000  Uiso   1.00
C105   C     0.84053   0.93581   0.83037   0.00000  Uiso   1.00
C106   C     0.75322   0.39468   0.80601   0.00000  Uiso   1.00
C107   C     0.65251   0.37852   0.82004   0.00000  Uiso   1.00
C108   C     0.57339   0.31747   0.89029   0.00000  Uiso   1.00
C109   C     0.48755   0.31275   0.89113   0.00000  Uiso   1.00
C110   C     0.82661   0.34066   0.71526   0.00000  Uiso   1.00
C111   C     0.89387   0.24779   0.69742   0.00000  Uiso   1.00
C112   C     0.95461   0.21120   0.61005   0.00000  Uiso   1.00
C113   C     0.77252   0.53350   0.79816   0.00000  Uiso   1.00
C114   C     0.79434   0.60276   0.85000   0.00000  Uiso   1.00
C115   C     0.80957   0.72853   0.83240   0.00000  Uiso   1.00
H116   H     0.73652   0.53722   0.63038   0.00000  Uiso   1.00
H117   H     0.55549   0.47042   0.70182   0.00000  Uiso   1.00
H118   H     0.87594   0.40076   0.50898   0.00000  Uiso   1.00
H119   H     0.77641   0.75568   0.66154   0.00000  Uiso   1.00
H120   H     0.35761   0.37232   0.81058   0.00000  Uiso   1.00
H121   H     0.03331   0.22547   0.40397   0.00000  Uiso   1.00
H122   H     0.82345   0.97389   0.72565   0.00000  Uiso   1.00
H123   H     0.75819   0.35231   0.85821   0.00000  Uiso   1.00
H124   H     0.57834   0.27537   0.94216   0.00000  Uiso   1.00
H125   H     0.89879   0.20570   0.74932   0.00000  Uiso   1.00
H126   H     0.79927   0.56062   0.90187   0.00000  Uiso   1.00
H127   H     0.37616   0.21400   0.00565   0.00000  Uiso   1.00
H128   H     0.05186   0.06715   0.59903   0.00000  Uiso   1.00
H129   H     0.84200   0.81557   0.92072   0.00000  Uiso   1.00
O130   O     0.24820   0.24584   0.95921   0.00000  Uiso   1.00
O131   O     0.13469   0.05320   0.42575   0.00000  Uiso   1.00
O132   O     0.85936   0.03510   0.84779   0.00000  Uiso   1.00
N133   N     0.38665   0.34564   0.84498   0.00000  Uiso   1.00
N134   N     0.01838   0.20833   0.46482   0.00000  Uiso   1.00
N135   N     0.82220   0.90803   0.76555   0.00000  Uiso   1.00
N136   N     0.39663   0.26046   0.94994   0.00000  Uiso   1.00
N137   N     0.02836   0.12314   0.56978   0.00000  Uiso   1.00
N138   N     0.83218   0.82284   0.87051   0.00000  Uiso   1.00
C139   C     0.25852   0.99486   0.81742   0.00000  Uiso   1.00
C140   C     0.35387   0.93294   0.74701   0.00000  Uiso   1.00
C141   C     0.43960   0.92831   0.74628   0.00000  Uiso   1.00
C142   C     0.51883   0.86726   0.67604   0.00000  Uiso   1.00
C143   C     0.66785   0.77933   0.57693   0.00000  Uiso   1.00
C144   C     0.17977   0.89508   0.85178   0.00000  Uiso   1.00
C145   C     0.11912   0.85863   0.93915   0.00000  Uiso   1.00
C146   C     0.05178   0.76572   0.95711   0.00000  Uiso   1.00
C147   C     0.93046   0.61907   0.02067   0.00000  Uiso   1.00
C148   C     0.23386   0.08791   0.76889   0.00000  Uiso   1.00
C149   C     0.21865   0.21361   0.78658   0.00000  Uiso   1.00
C150   C     0.19682   0.28305   0.73476   0.00000  Uiso   1.00
C151   C     0.15947   0.43581   0.66963   0.00000  Uiso   1.00
C152   C     0.24678   0.89468   0.69399   0.00000  Uiso   1.00
C153   C     0.34749   0.87852   0.67996   0.00000  Uiso   1.00
C154   C     0.42661   0.81747   0.60971   0.00000  Uiso   1.00
C155   C     0.51245   0.81275   0.60887   0.00000  Uiso   1.00
C156   C     0.17339   0.84066   0.78474   0.00000  Uiso   1.00
C157   C     0.10613   0.74779   0.80258   0.00000  Uiso   1.00
C158   C     0.04539   0.71120   0.88995   0.00000  Uiso   1.00
C159   C     0.22748   0.03350   0.70184   0.00000  Uiso   1.00
C160   C     0.20566   0.10276   0.65000   0.00000  Uiso   1.00
C161   C     0.19043   0.22853   0.66760   0.00000  Uiso   1.00
H162   H     0.26348   0.03722   0.86962   0.00000  Uiso   1.00
H163   H     0.44451   0.97042   0.79818   0.00000  Uiso   1.00
H164   H     0.12406   0.90076   0.99102   0.00000  Uiso   1.00
H165   H     0.22359   0.25568   0.83846   0.00000  Uiso   1.00
H166   H     0.64239   0.87232   0.68942   0.00000  Uiso   1.00
H167   H     0.96669   0.72547   0.09603   0.00000  Uiso   1.00
H168   H     0.17655   0.47389   0.77435   0.00000  Uiso   1.00
H169   H     0.24181   0.85231   0.64179   0.00000  Uiso   1.00
H170   H     0.42166   0.77537   0.55784   0.00000  Uiso   1.00
H171   H     0.10121   0.70570   0.75068   0.00000  Uiso   1.00
H172   H     0.20073   0.06062   0.59813   0.00000  Uiso   1.00
H173   H     0.62384   0.71400   0.49435   0.00000  Uiso   1.00
H174   H     0.94814   0.56715   0.90097   0.00000  Uiso   1.00
H175   H     0.15800   0.31557   0.57928   0.00000  Uiso   1.00
O176   O     0.75180   0.74584   0.54079   0.00000  Uiso   1.00
O177   O     0.86531   0.55320   0.07425   0.00000  Uiso   1.00
O178   O     0.14064   0.53510   0.65221   0.00000  Uiso   1.00
N179   N     0.61335   0.84564   0.65502   0.00000  Uiso   1.00
N180   N     0.98162   0.70833   0.03518   0.00000  Uiso   1.00
N181   N     0.17780   0.40803   0.73445   0.00000  Uiso   1.00
N182   N     0.60337   0.76046   0.55006   0.00000  Uiso   1.00
N183   N     0.97164   0.62314   0.93022   0.00000  Uiso   1.00
N184   N     0.16782   0.32284   0.62949   0.00000  Uiso   1.00
