data_job_00405
_audit_creation_date              2018-12-19
_audit_creation_method            'Materials Studio'
_symmetry_space_group_name_H-M    'P1'
_symmetry_Int_Tables_number       1
_symmetry_cell_setting            triclinic
loop_
_symmetry_equiv_pos_as_xyz
  x,y,z
_cell_length_a                    10.1341
_cell_length_b                    16.3930
_cell_length_c                    36.6076
_cell_angle_alpha                 90.0000
_cell_angle_beta                  90.0000
_cell_angle_gamma                 90.0000
loop_
_atom_site_label
_atom_site_type_symbol
_atom_site_fract_x
_atom_site_fract_y
_atom_site_fract_z
_atom_site_U_iso_or_equiv
_atom_site_adp_type
_atom_site_occupancy
C1     C     0.28905   0.24162   0.37549   0.00000  Uiso   1.00
C2     C     0.39268   0.20759   0.34941   0.00000  Uiso   1.00
C3     C     0.52834   0.21476   0.35348   0.00000  Uiso   1.00
C4     C     0.60649   0.17943   0.32665   0.00000  Uiso   1.00
C5     C     0.77588   0.13287   0.29069   0.00000  Uiso   1.00
C6     C     0.20012   0.29630   0.35247   0.00000  Uiso   1.00
C7     C     0.17385   0.37805   0.35913   0.00000  Uiso   1.00
C8     C     0.08988   0.41737   0.33488   0.00000  Uiso   1.00
C9     C     0.96023   0.50852   0.30368   0.00000  Uiso   1.00
C10    C     0.20415   0.16922   0.38696   0.00000  Uiso   1.00
C11    C     0.18123   0.14413   0.42261   0.00000  Uiso   1.00
C12    C     0.10063   0.07648   0.42739   0.00000  Uiso   1.00
C13    C     0.97724   0.97031   0.44974   0.00000  Uiso   1.00
C14    C     0.18662   0.16610   0.32060   0.00000  Uiso   1.00
C15    C     0.33704   0.16657   0.31960   0.00000  Uiso   1.00
C16    C     0.41501   0.13121   0.29275   0.00000  Uiso   1.00
C17    C     0.55076   0.13833   0.29679   0.00000  Uiso   1.00
C18    C     0.14448   0.25528   0.32266   0.00000  Uiso   1.00
C19    C     0.06053   0.29449   0.29840   0.00000  Uiso   1.00
C20    C     0.03415   0.37628   0.30501   0.00000  Uiso   1.00
C21    C     0.14851   0.12820   0.35715   0.00000  Uiso   1.00
C22    C     0.06792   0.06057   0.36188   0.00000  Uiso   1.00
C23    C     0.04490   0.03538   0.39753   0.00000  Uiso   1.00
H24    H     0.33235   0.27356   0.39870   0.00000  Uiso   1.00
H25    H     0.57135   0.24652   0.37656   0.00000  Uiso   1.00
H26    H     0.21691   0.40977   0.38220   0.00000  Uiso   1.00
H27    H     0.22430   0.17589   0.44567   0.00000  Uiso   1.00
H28    H     0.81179   0.19848   0.33886   0.00000  Uiso   1.00
H29    H     0.06439   0.54270   0.35076   0.00000  Uiso   1.00
H30    H     0.07998   0.04951   0.48461   0.00000  Uiso   1.00
H31    H     0.14330   0.13416   0.29739   0.00000  Uiso   1.00
H32    H     0.37193   0.09947   0.26969   0.00000  Uiso   1.00
H33    H     0.01749   0.26273   0.27533   0.00000  Uiso   1.00
H34    H     0.02488   0.02885   0.33880   0.00000  Uiso   1.00
H35    H     0.64993   0.07914   0.25211   0.00000  Uiso   1.00
H36    H     0.90253   0.42336   0.26402   0.00000  Uiso   1.00
H37    H     0.91812   0.93017   0.39786   0.00000  Uiso   1.00
O38    O     0.88467   0.11853   0.27908   0.00000  Uiso   1.00
O39    O     0.90409   0.57013   0.29471   0.00000  Uiso   1.00
O40    O     0.92455   0.92307   0.47031   0.00000  Uiso   1.00
N41    N     0.74232   0.17514   0.32225   0.00000  Uiso   1.00
N42    N     0.04356   0.49697   0.33338   0.00000  Uiso   1.00
N43    N     0.05811   0.03589   0.45851   0.00000  Uiso   1.00
N44    N     0.65523   0.11092   0.27557   0.00000  Uiso   1.00
N45    N     0.95647   0.43275   0.28670   0.00000  Uiso   1.00
N46    N     0.97102   0.97167   0.41183   0.00000  Uiso   1.00
C47    C     0.21095   0.75838   0.37549   0.00000  Uiso   1.00
C48    C     0.10732   0.79241   0.34941   0.00000  Uiso   1.00
C49    C     0.97166   0.78524   0.35348   0.00000  Uiso   1.00
C50    C     0.89351   0.82057   0.32665   0.00000  Uiso   1.00
C51    C     0.72412   0.86713   0.29069   0.00000  Uiso   1.00
C52    C     0.29988   0.70370   0.35247   0.00000  Uiso   1.00
C53    C     0.32615   0.62195   0.35913   0.00000  Uiso   1.00
C54    C     0.41012   0.58263   0.33488   0.00000  Uiso   1.00
C55    C     0.53977   0.49148   0.30368   0.00000  Uiso   1.00
C56    C     0.29585   0.83078   0.38696   0.00000  Uiso   1.00
C57    C     0.31877   0.85587   0.42261   0.00000  Uiso   1.00
C58    C     0.39937   0.92352   0.42739   0.00000  Uiso   1.00
C59    C     0.52276   0.02969   0.44974   0.00000  Uiso   1.00
C60    C     0.31338   0.83390   0.32060   0.00000  Uiso   1.00
C61    C     0.16296   0.83343   0.31960   0.00000  Uiso   1.00
C62    C     0.08499   0.86879   0.29275   0.00000  Uiso   1.00
C63    C     0.94924   0.86167   0.29679   0.00000  Uiso   1.00
C64    C     0.35552   0.74472   0.32266   0.00000  Uiso   1.00
C65    C     0.43947   0.70551   0.29840   0.00000  Uiso   1.00
C66    C     0.46585   0.62372   0.30501   0.00000  Uiso   1.00
C67    C     0.35149   0.87180   0.35715   0.00000  Uiso   1.00
C68    C     0.43208   0.93943   0.36188   0.00000  Uiso   1.00
C69    C     0.45510   0.96462   0.39753   0.00000  Uiso   1.00
H70    H     0.16765   0.72644   0.39870   0.00000  Uiso   1.00
H71    H     0.92865   0.75348   0.37656   0.00000  Uiso   1.00
H72    H     0.28309   0.59023   0.38220   0.00000  Uiso   1.00
H73    H     0.27570   0.82411   0.44567   0.00000  Uiso   1.00
H74    H     0.68821   0.80152   0.33886   0.00000  Uiso   1.00
H75    H     0.43561   0.45730   0.35076   0.00000  Uiso   1.00
H76    H     0.42002   0.95049   0.48461   0.00000  Uiso   1.00
H77    H     0.35670   0.86584   0.29739   0.00000  Uiso   1.00
H78    H     0.12807   0.90053   0.26969   0.00000  Uiso   1.00
H79    H     0.48251   0.73727   0.27533   0.00000  Uiso   1.00
H80    H     0.47512   0.97115   0.33880   0.00000  Uiso   1.00
H81    H     0.85007   0.92086   0.25211   0.00000  Uiso   1.00
H82    H     0.59747   0.57664   0.26402   0.00000  Uiso   1.00
H83    H     0.58188   0.06983   0.39786   0.00000  Uiso   1.00
O84    O     0.61533   0.88147   0.27908   0.00000  Uiso   1.00
O85    O     0.59591   0.42987   0.29471   0.00000  Uiso   1.00
O86    O     0.57545   0.07693   0.47031   0.00000  Uiso   1.00
N87    N     0.75768   0.82486   0.32225   0.00000  Uiso   1.00
N88    N     0.45644   0.50303   0.33338   0.00000  Uiso   1.00
N89    N     0.44189   0.96411   0.45851   0.00000  Uiso   1.00
N90    N     0.84477   0.88908   0.27557   0.00000  Uiso   1.00
N91    N     0.54353   0.56725   0.28670   0.00000  Uiso   1.00
N92    N     0.52898   0.02833   0.41183   0.00000  Uiso   1.00
C93    C     0.21095   0.74162   0.12451   0.00000  Uiso   1.00
C94    C     0.10732   0.70759   0.15059   0.00000  Uiso   1.00
C95    C     0.97166   0.71476   0.14652   0.00000  Uiso   1.00
C96    C     0.89351   0.67943   0.17335   0.00000  Uiso   1.00
C97    C     0.72412   0.63287   0.20931   0.00000  Uiso   1.00
C98    C     0.29988   0.79630   0.14753   0.00000  Uiso   1.00
C99    C     0.32615   0.87805   0.14087   0.00000  Uiso   1.00
C100   C     0.41012   0.91737   0.16512   0.00000  Uiso   1.00
C101   C     0.53977   0.00852   0.19632   0.00000  Uiso   1.00
C102   C     0.29585   0.66922   0.11304   0.00000  Uiso   1.00
C103   C     0.31877   0.64413   0.07739   0.00000  Uiso   1.00
C104   C     0.39937   0.57648   0.07261   0.00000  Uiso   1.00
C105   C     0.52276   0.47031   0.05026   0.00000  Uiso   1.00
C106   C     0.31338   0.66610   0.17940   0.00000  Uiso   1.00
C107   C     0.16296   0.66657   0.18040   0.00000  Uiso   1.00
C108   C     0.08499   0.63121   0.20725   0.00000  Uiso   1.00
C109   C     0.94924   0.63833   0.20321   0.00000  Uiso   1.00
C110   C     0.35552   0.75528   0.17734   0.00000  Uiso   1.00
C111   C     0.43947   0.79449   0.20160   0.00000  Uiso   1.00
C112   C     0.46585   0.87628   0.19499   0.00000  Uiso   1.00
C113   C     0.35149   0.62820   0.14285   0.00000  Uiso   1.00
C114   C     0.43208   0.56057   0.13812   0.00000  Uiso   1.00
C115   C     0.45510   0.53538   0.10247   0.00000  Uiso   1.00
H116   H     0.16765   0.77356   0.10130   0.00000  Uiso   1.00
H117   H     0.92865   0.74652   0.12344   0.00000  Uiso   1.00
H118   H     0.28309   0.90977   0.11780   0.00000  Uiso   1.00
H119   H     0.27570   0.67589   0.05433   0.00000  Uiso   1.00
H120   H     0.68821   0.69848   0.16114   0.00000  Uiso   1.00
H121   H     0.43561   0.04270   0.14924   0.00000  Uiso   1.00
H122   H     0.42002   0.54951   0.01539   0.00000  Uiso   1.00
H123   H     0.35670   0.63416   0.20261   0.00000  Uiso   1.00
H124   H     0.12807   0.59947   0.23031   0.00000  Uiso   1.00
H125   H     0.48251   0.76273   0.22467   0.00000  Uiso   1.00
H126   H     0.47512   0.52885   0.16120   0.00000  Uiso   1.00
H127   H     0.85007   0.57914   0.24789   0.00000  Uiso   1.00
H128   H     0.59747   0.92336   0.23598   0.00000  Uiso   1.00
H129   H     0.58188   0.43017   0.10214   0.00000  Uiso   1.00
O130   O     0.61533   0.61853   0.22092   0.00000  Uiso   1.00
O131   O     0.59591   0.07013   0.20529   0.00000  Uiso   1.00
O132   O     0.57545   0.42307   0.02969   0.00000  Uiso   1.00
N133   N     0.75768   0.67514   0.17775   0.00000  Uiso   1.00
N134   N     0.45644   0.99697   0.16662   0.00000  Uiso   1.00
N135   N     0.44189   0.53589   0.04149   0.00000  Uiso   1.00
N136   N     0.84477   0.61092   0.22443   0.00000  Uiso   1.00
N137   N     0.54353   0.93275   0.21330   0.00000  Uiso   1.00
N138   N     0.52898   0.47167   0.08817   0.00000  Uiso   1.00
C139   C     0.28905   0.25838   0.12451   0.00000  Uiso   1.00
C140   C     0.39268   0.29241   0.15059   0.00000  Uiso   1.00
C141   C     0.52834   0.28524   0.14652   0.00000  Uiso   1.00
C142   C     0.60649   0.32057   0.17335   0.00000  Uiso   1.00
C143   C     0.77588   0.36713   0.20931   0.00000  Uiso   1.00
C144   C     0.20012   0.20370   0.14753   0.00000  Uiso   1.00
C145   C     0.17385   0.12195   0.14087   0.00000  Uiso   1.00
C146   C     0.08988   0.08263   0.16512   0.00000  Uiso   1.00
C147   C     0.96023   0.99148   0.19632   0.00000  Uiso   1.00
C148   C     0.20415   0.33078   0.11304   0.00000  Uiso   1.00
C149   C     0.18123   0.35587   0.07739   0.00000  Uiso   1.00
C150   C     0.10063   0.42352   0.07261   0.00000  Uiso   1.00
C151   C     0.97724   0.52969   0.05026   0.00000  Uiso   1.00
C152   C     0.18662   0.33390   0.17940   0.00000  Uiso   1.00
C153   C     0.33704   0.33343   0.18040   0.00000  Uiso   1.00
C154   C     0.41501   0.36879   0.20725   0.00000  Uiso   1.00
C155   C     0.55076   0.36167   0.20321   0.00000  Uiso   1.00
C156   C     0.14448   0.24472   0.17734   0.00000  Uiso   1.00
C157   C     0.06053   0.20551   0.20160   0.00000  Uiso   1.00
C158   C     0.03415   0.12372   0.19499   0.00000  Uiso   1.00
C159   C     0.14851   0.37180   0.14285   0.00000  Uiso   1.00
C160   C     0.06792   0.43943   0.13812   0.00000  Uiso   1.00
C161   C     0.04490   0.46462   0.10247   0.00000  Uiso   1.00
H162   H     0.33235   0.22644   0.10130   0.00000  Uiso   1.00
H163   H     0.57135   0.25348   0.12344   0.00000  Uiso   1.00
H164   H     0.21691   0.09023   0.11780   0.00000  Uiso   1.00
H165   H     0.22430   0.32411   0.05433   0.00000  Uiso   1.00
H166   H     0.81179   0.30152   0.16114   0.00000  Uiso   1.00
H167   H     0.06439   0.95730   0.14924   0.00000  Uiso   1.00
H168   H     0.07998   0.45049   0.01539   0.00000  Uiso   1.00
H169   H     0.14330   0.36584   0.20261   0.00000  Uiso   1.00
H170   H     0.37193   0.40053   0.23031   0.00000  Uiso   1.00
H171   H     0.01749   0.23727   0.22467   0.00000  Uiso   1.00
H172   H     0.02488   0.47115   0.16120   0.00000  Uiso   1.00
H173   H     0.64993   0.42086   0.24789   0.00000  Uiso   1.00
H174   H     0.90253   0.07664   0.23598   0.00000  Uiso   1.00
H175   H     0.91812   0.56983   0.10214   0.00000  Uiso   1.00
O176   O     0.88467   0.38147   0.22092   0.00000  Uiso   1.00
O177   O     0.90409   0.92987   0.20529   0.00000  Uiso   1.00
O178   O     0.92455   0.57693   0.02969   0.00000  Uiso   1.00
N179   N     0.74232   0.32486   0.17775   0.00000  Uiso   1.00
N180   N     0.04356   0.00303   0.16662   0.00000  Uiso   1.00
N181   N     0.05811   0.46411   0.04149   0.00000  Uiso   1.00
N182   N     0.65523   0.38908   0.22443   0.00000  Uiso   1.00
N183   N     0.95647   0.06725   0.21330   0.00000  Uiso   1.00
N184   N     0.97102   0.52833   0.08817   0.00000  Uiso   1.00
C185   C     0.71095   0.75838   0.62451   0.00000  Uiso   1.00
C186   C     0.60732   0.79241   0.65059   0.00000  Uiso   1.00
C187   C     0.47166   0.78524   0.64652   0.00000  Uiso   1.00
C188   C     0.39351   0.82057   0.67335   0.00000  Uiso   1.00
C189   C     0.22412   0.86713   0.70931   0.00000  Uiso   1.00
C190   C     0.79988   0.70370   0.64753   0.00000  Uiso   1.00
C191   C     0.82615   0.62195   0.64087   0.00000  Uiso   1.00
C192   C     0.91012   0.58263   0.66512   0.00000  Uiso   1.00
C193   C     0.03977   0.49148   0.69632   0.00000  Uiso   1.00
C194   C     0.79585   0.83078   0.61304   0.00000  Uiso   1.00
C195   C     0.81877   0.85587   0.57739   0.00000  Uiso   1.00
C196   C     0.89937   0.92352   0.57261   0.00000  Uiso   1.00
C197   C     0.02276   0.02969   0.55026   0.00000  Uiso   1.00
C198   C     0.81338   0.83390   0.67940   0.00000  Uiso   1.00
C199   C     0.66296   0.83343   0.68040   0.00000  Uiso   1.00
C200   C     0.58499   0.86879   0.70725   0.00000  Uiso   1.00
C201   C     0.44924   0.86167   0.70321   0.00000  Uiso   1.00
C202   C     0.85552   0.74472   0.67734   0.00000  Uiso   1.00
C203   C     0.93947   0.70551   0.70160   0.00000  Uiso   1.00
C204   C     0.96585   0.62372   0.69499   0.00000  Uiso   1.00
C205   C     0.85149   0.87180   0.64285   0.00000  Uiso   1.00
C206   C     0.93208   0.93943   0.63812   0.00000  Uiso   1.00
C207   C     0.95510   0.96462   0.60247   0.00000  Uiso   1.00
H208   H     0.66765   0.72644   0.60130   0.00000  Uiso   1.00
H209   H     0.42865   0.75348   0.62344   0.00000  Uiso   1.00
H210   H     0.78309   0.59023   0.61780   0.00000  Uiso   1.00
H211   H     0.77570   0.82411   0.55433   0.00000  Uiso   1.00
H212   H     0.18821   0.80152   0.66114   0.00000  Uiso   1.00
H213   H     0.93561   0.45730   0.64924   0.00000  Uiso   1.00
H214   H     0.92002   0.95049   0.51539   0.00000  Uiso   1.00
H215   H     0.85670   0.86584   0.70261   0.00000  Uiso   1.00
H216   H     0.62807   0.90053   0.73031   0.00000  Uiso   1.00
H217   H     0.98251   0.73727   0.72467   0.00000  Uiso   1.00
H218   H     0.97512   0.97115   0.66120   0.00000  Uiso   1.00
H219   H     0.35007   0.92086   0.74789   0.00000  Uiso   1.00
H220   H     0.09747   0.57664   0.73598   0.00000  Uiso   1.00
H221   H     0.08188   0.06983   0.60214   0.00000  Uiso   1.00
O222   O     0.11533   0.88147   0.72092   0.00000  Uiso   1.00
O223   O     0.09591   0.42987   0.70529   0.00000  Uiso   1.00
O224   O     0.07545   0.07693   0.52969   0.00000  Uiso   1.00
N225   N     0.25768   0.82486   0.67775   0.00000  Uiso   1.00
N226   N     0.95644   0.50303   0.66662   0.00000  Uiso   1.00
N227   N     0.94189   0.96411   0.54149   0.00000  Uiso   1.00
N228   N     0.34477   0.88908   0.72443   0.00000  Uiso   1.00
N229   N     0.04353   0.56725   0.71330   0.00000  Uiso   1.00
N230   N     0.02898   0.02833   0.58817   0.00000  Uiso   1.00
C231   C     0.78905   0.24162   0.62451   0.00000  Uiso   1.00
C232   C     0.89268   0.20759   0.65059   0.00000  Uiso   1.00
C233   C     0.02834   0.21476   0.64652   0.00000  Uiso   1.00
C234   C     0.10649   0.17943   0.67335   0.00000  Uiso   1.00
C235   C     0.27588   0.13287   0.70931   0.00000  Uiso   1.00
C236   C     0.70012   0.29630   0.64753   0.00000  Uiso   1.00
C237   C     0.67385   0.37805   0.64087   0.00000  Uiso   1.00
C238   C     0.58988   0.41737   0.66512   0.00000  Uiso   1.00
C239   C     0.46023   0.50852   0.69632   0.00000  Uiso   1.00
C240   C     0.70415   0.16922   0.61304   0.00000  Uiso   1.00
C241   C     0.68123   0.14413   0.57739   0.00000  Uiso   1.00
C242   C     0.60063   0.07648   0.57261   0.00000  Uiso   1.00
C243   C     0.47724   0.97031   0.55026   0.00000  Uiso   1.00
C244   C     0.68662   0.16610   0.67940   0.00000  Uiso   1.00
C245   C     0.83704   0.16657   0.68040   0.00000  Uiso   1.00
C246   C     0.91501   0.13121   0.70725   0.00000  Uiso   1.00
C247   C     0.05076   0.13833   0.70321   0.00000  Uiso   1.00
C248   C     0.64448   0.25528   0.67734   0.00000  Uiso   1.00
C249   C     0.56053   0.29449   0.70160   0.00000  Uiso   1.00
C250   C     0.53415   0.37628   0.69499   0.00000  Uiso   1.00
C251   C     0.64851   0.12820   0.64285   0.00000  Uiso   1.00
C252   C     0.56792   0.06057   0.63812   0.00000  Uiso   1.00
C253   C     0.54490   0.03538   0.60247   0.00000  Uiso   1.00
H254   H     0.83235   0.27356   0.60130   0.00000  Uiso   1.00
H255   H     0.07135   0.24652   0.62344   0.00000  Uiso   1.00
H256   H     0.71691   0.40977   0.61780   0.00000  Uiso   1.00
H257   H     0.72430   0.17589   0.55433   0.00000  Uiso   1.00
H258   H     0.31179   0.19848   0.66114   0.00000  Uiso   1.00
H259   H     0.56439   0.54270   0.64924   0.00000  Uiso   1.00
H260   H     0.57998   0.04951   0.51539   0.00000  Uiso   1.00
H261   H     0.64330   0.13416   0.70261   0.00000  Uiso   1.00
H262   H     0.87193   0.09947   0.73031   0.00000  Uiso   1.00
H263   H     0.51749   0.26273   0.72467   0.00000  Uiso   1.00
H264   H     0.52488   0.02885   0.66120   0.00000  Uiso   1.00
H265   H     0.14993   0.07914   0.74789   0.00000  Uiso   1.00
H266   H     0.40253   0.42336   0.73598   0.00000  Uiso   1.00
H267   H     0.41812   0.93017   0.60214   0.00000  Uiso   1.00
O268   O     0.38467   0.11853   0.72092   0.00000  Uiso   1.00
O269   O     0.40409   0.57013   0.70529   0.00000  Uiso   1.00
O270   O     0.42455   0.92307   0.52969   0.00000  Uiso   1.00
N271   N     0.24232   0.17514   0.67775   0.00000  Uiso   1.00
N272   N     0.54356   0.49697   0.66662   0.00000  Uiso   1.00
N273   N     0.55811   0.03589   0.54149   0.00000  Uiso   1.00
N274   N     0.15523   0.11092   0.72443   0.00000  Uiso   1.00
N275   N     0.45647   0.43275   0.71330   0.00000  Uiso   1.00
N276   N     0.47102   0.97167   0.58817   0.00000  Uiso   1.00
C277   C     0.78905   0.25838   0.87549   0.00000  Uiso   1.00
C278   C     0.89268   0.29241   0.84941   0.00000  Uiso   1.00
C279   C     0.02834   0.28524   0.85348   0.00000  Uiso   1.00
C280   C     0.10649   0.32057   0.82665   0.00000  Uiso   1.00
C281   C     0.27588   0.36713   0.79069   0.00000  Uiso   1.00
C282   C     0.70012   0.20370   0.85247   0.00000  Uiso   1.00
C283   C     0.67385   0.12195   0.85913   0.00000  Uiso   1.00
C284   C     0.58988   0.08263   0.83488   0.00000  Uiso   1.00
C285   C     0.46023   0.99148   0.80368   0.00000  Uiso   1.00
C286   C     0.70415   0.33078   0.88696   0.00000  Uiso   1.00
C287   C     0.68123   0.35587   0.92261   0.00000  Uiso   1.00
C288   C     0.60063   0.42352   0.92739   0.00000  Uiso   1.00
C289   C     0.47724   0.52969   0.94974   0.00000  Uiso   1.00
C290   C     0.68662   0.33390   0.82060   0.00000  Uiso   1.00
C291   C     0.83704   0.33343   0.81960   0.00000  Uiso   1.00
C292   C     0.91501   0.36879   0.79275   0.00000  Uiso   1.00
C293   C     0.05076   0.36167   0.79679   0.00000  Uiso   1.00
C294   C     0.64448   0.24472   0.82266   0.00000  Uiso   1.00
C295   C     0.56053   0.20551   0.79840   0.00000  Uiso   1.00
C296   C     0.53415   0.12372   0.80501   0.00000  Uiso   1.00
C297   C     0.64851   0.37180   0.85715   0.00000  Uiso   1.00
C298   C     0.56792   0.43943   0.86188   0.00000  Uiso   1.00
C299   C     0.54490   0.46462   0.89753   0.00000  Uiso   1.00
H300   H     0.83235   0.22644   0.89870   0.00000  Uiso   1.00
H301   H     0.07135   0.25348   0.87656   0.00000  Uiso   1.00
H302   H     0.71691   0.09023   0.88220   0.00000  Uiso   1.00
H303   H     0.72430   0.32411   0.94567   0.00000  Uiso   1.00
H304   H     0.31179   0.30152   0.83886   0.00000  Uiso   1.00
H305   H     0.56439   0.95730   0.85076   0.00000  Uiso   1.00
H306   H     0.57998   0.45049   0.98461   0.00000  Uiso   1.00
H307   H     0.64330   0.36584   0.79739   0.00000  Uiso   1.00
H308   H     0.87193   0.40053   0.76969   0.00000  Uiso   1.00
H309   H     0.51749   0.23727   0.77533   0.00000  Uiso   1.00
H310   H     0.52488   0.47115   0.83880   0.00000  Uiso   1.00
H311   H     0.14993   0.42086   0.75211   0.00000  Uiso   1.00
H312   H     0.40253   0.07664   0.76402   0.00000  Uiso   1.00
H313   H     0.41812   0.56983   0.89786   0.00000  Uiso   1.00
O314   O     0.38467   0.38147   0.77908   0.00000  Uiso   1.00
O315   O     0.40409   0.92987   0.79471   0.00000  Uiso   1.00
O316   O     0.42455   0.57693   0.97031   0.00000  Uiso   1.00
N317   N     0.24232   0.32486   0.82225   0.00000  Uiso   1.00
N318   N     0.54356   0.00303   0.83338   0.00000  Uiso   1.00
N319   N     0.55811   0.46411   0.95851   0.00000  Uiso   1.00
N320   N     0.15523   0.38908   0.77557   0.00000  Uiso   1.00
N321   N     0.45647   0.06725   0.78670   0.00000  Uiso   1.00
N322   N     0.47102   0.52833   0.91183   0.00000  Uiso   1.00
C323   C     0.71095   0.74162   0.87549   0.00000  Uiso   1.00
C324   C     0.60732   0.70759   0.84941   0.00000  Uiso   1.00
C325   C     0.47166   0.71476   0.85348   0.00000  Uiso   1.00
C326   C     0.39351   0.67943   0.82665   0.00000  Uiso   1.00
C327   C     0.22412   0.63287   0.79069   0.00000  Uiso   1.00
C328   C     0.79988   0.79630   0.85247   0.00000  Uiso   1.00
C329   C     0.82615   0.87805   0.85913   0.00000  Uiso   1.00
C330   C     0.91012   0.91737   0.83488   0.00000  Uiso   1.00
C331   C     0.03977   0.00852   0.80368   0.00000  Uiso   1.00
C332   C     0.79585   0.66922   0.88696   0.00000  Uiso   1.00
C333   C     0.81877   0.64413   0.92261   0.00000  Uiso   1.00
C334   C     0.89937   0.57648   0.92739   0.00000  Uiso   1.00
C335   C     0.02276   0.47031   0.94974   0.00000  Uiso   1.00
C336   C     0.81338   0.66610   0.82060   0.00000  Uiso   1.00
C337   C     0.66296   0.66657   0.81960   0.00000  Uiso   1.00
C338   C     0.58499   0.63121   0.79275   0.00000  Uiso   1.00
C339   C     0.44924   0.63833   0.79679   0.00000  Uiso   1.00
C340   C     0.85552   0.75528   0.82266   0.00000  Uiso   1.00
C341   C     0.93947   0.79449   0.79840   0.00000  Uiso   1.00
C342   C     0.96585   0.87628   0.80501   0.00000  Uiso   1.00
C343   C     0.85149   0.62820   0.85715   0.00000  Uiso   1.00
C344   C     0.93208   0.56057   0.86188   0.00000  Uiso   1.00
C345   C     0.95510   0.53538   0.89753   0.00000  Uiso   1.00
H346   H     0.66765   0.77356   0.89870   0.00000  Uiso   1.00
H347   H     0.42865   0.74652   0.87656   0.00000  Uiso   1.00
H348   H     0.78309   0.90977   0.88220   0.00000  Uiso   1.00
H349   H     0.77570   0.67589   0.94567   0.00000  Uiso   1.00
H350   H     0.18821   0.69848   0.83886   0.00000  Uiso   1.00
H351   H     0.93561   0.04270   0.85076   0.00000  Uiso   1.00
H352   H     0.92002   0.54951   0.98461   0.00000  Uiso   1.00
H353   H     0.85670   0.63416   0.79739   0.00000  Uiso   1.00
H354   H     0.62807   0.59947   0.76969   0.00000  Uiso   1.00
H355   H     0.98251   0.76273   0.77533   0.00000  Uiso   1.00
H356   H     0.97512   0.52885   0.83880   0.00000  Uiso   1.00
H357   H     0.35007   0.57914   0.75211   0.00000  Uiso   1.00
H358   H     0.09747   0.92336   0.76402   0.00000  Uiso   1.00
H359   H     0.08188   0.43017   0.89786   0.00000  Uiso   1.00
O360   O     0.11533   0.61853   0.77908   0.00000  Uiso   1.00
O361   O     0.09591   0.07013   0.79471   0.00000  Uiso   1.00
O362   O     0.07545   0.42307   0.97031   0.00000  Uiso   1.00
N363   N     0.25768   0.67514   0.82225   0.00000  Uiso   1.00
N364   N     0.95644   0.99697   0.83338   0.00000  Uiso   1.00
N365   N     0.94189   0.53589   0.95851   0.00000  Uiso   1.00
N366   N     0.34477   0.61092   0.77557   0.00000  Uiso   1.00
N367   N     0.04353   0.93275   0.78670   0.00000  Uiso   1.00
N368   N     0.02898   0.47167   0.91183   0.00000  Uiso   1.00
