data_job_01640
_audit_creation_date              2018-12-19
_audit_creation_method            'Materials Studio'
_symmetry_space_group_name_H-M    'P1'
_symmetry_Int_Tables_number       1
_symmetry_cell_setting            triclinic
loop_
_symmetry_equiv_pos_as_xyz
  x,y,z
_cell_length_a                    22.6608
_cell_length_b                    18.4210
_cell_length_c                    15.6458
_cell_angle_alpha                 90.0000
_cell_angle_beta                  90.0000
_cell_angle_gamma                 90.0000
loop_
_atom_site_label
_atom_site_type_symbol
_atom_site_fract_x
_atom_site_fract_y
_atom_site_fract_z
_atom_site_U_iso_or_equiv
_atom_site_adp_type
_atom_site_occupancy
C1     C     0.26984   0.47933   0.09335   0.00000  Uiso   1.00
C2     C     0.32965   0.44883   0.06680   0.00000  Uiso   1.00
C3     C     0.38055   0.44951   0.11612   0.00000  Uiso   1.00
C4     C     0.43080   0.41892   0.08033   0.00000  Uiso   1.00
C5     C     0.52379   0.37619   0.05159   0.00000  Uiso   1.00
C6     C     0.25290   0.53425   0.02467   0.00000  Uiso   1.00
C7     C     0.23926   0.60675   0.03857   0.00000  Uiso   1.00
C8     C     0.22489   0.64805   0.96732   0.00000  Uiso   1.00
C9     C     0.19867   0.73792   0.87318   0.00000  Uiso   1.00
C10    C     0.22608   0.41685   0.08492   0.00000  Uiso   1.00
C11    C     0.18988   0.39064   0.14947   0.00000  Uiso   1.00
C12    C     0.15292   0.33311   0.12894   0.00000  Uiso   1.00
C13    C     0.08507   0.24069   0.12835   0.00000  Uiso   1.00
C14    C     0.26856   0.42378   0.94210   0.00000  Uiso   1.00
C15    C     0.32896   0.41867   0.98465   0.00000  Uiso   1.00
C16    C     0.37914   0.38806   0.94878   0.00000  Uiso   1.00
C17    C     0.43010   0.38869   0.99803   0.00000  Uiso   1.00
C18    C     0.25220   0.50409   0.94252   0.00000  Uiso   1.00
C19    C     0.23784   0.54529   0.87124   0.00000  Uiso   1.00
C20    C     0.22419   0.61783   0.88502   0.00000  Uiso   1.00
C21    C     0.22539   0.38668   0.00277   0.00000  Uiso   1.00
C22    C     0.18847   0.32918   0.98214   0.00000  Uiso   1.00
C23    C     0.15222   0.30288   0.04664   0.00000  Uiso   1.00
H24    H     0.27038   0.50282   0.15731   0.00000  Uiso   1.00
H25    H     0.38107   0.47287   0.17969   0.00000  Uiso   1.00
H26    H     0.23979   0.63008   0.10216   0.00000  Uiso   1.00
H27    H     0.19043   0.41400   0.21304   0.00000  Uiso   1.00
H28    H     0.50350   0.42639   0.16826   0.00000  Uiso   1.00
H29    H     0.20559   0.75785   0.00478   0.00000  Uiso   1.00
H30    H     0.10149   0.30221   0.23860   0.00000  Uiso   1.00
H31    H     0.26801   0.40030   0.87814   0.00000  Uiso   1.00
H32    H     0.37859   0.36471   0.88520   0.00000  Uiso   1.00
H33    H     0.23731   0.52192   0.80767   0.00000  Uiso   1.00
H34    H     0.18794   0.30584   0.91856   0.00000  Uiso   1.00
H35    H     0.50148   0.33860   0.92925   0.00000  Uiso   1.00
H36    H     0.20357   0.67007   0.76577   0.00000  Uiso   1.00
H37    H     0.09947   0.21443   0.99959   0.00000  Uiso   1.00
O38    O     0.57528   0.36096   0.05842   0.00000  Uiso   1.00
O39    O     0.18442   0.79583   0.84395   0.00000  Uiso   1.00
O40    O     0.04785   0.19804   0.15072   0.00000  Uiso   1.00
N41    N     0.48785   0.41060   0.11105   0.00000  Uiso   1.00
N42    N     0.20933   0.72050   0.95820   0.00000  Uiso   1.00
N43    N     0.11199   0.29453   0.17680   0.00000  Uiso   1.00
N44    N     0.48676   0.36336   0.98243   0.00000  Uiso   1.00
N45    N     0.20824   0.67327   0.82959   0.00000  Uiso   1.00
N46    N     0.11091   0.24729   0.04819   0.00000  Uiso   1.00
C47    C     0.25260   0.01400   0.41033   0.00000  Uiso   1.00
C48    C     0.20544   0.07247   0.42007   0.00000  Uiso   1.00
C49    C     0.16645   0.09476   0.35691   0.00000  Uiso   1.00
C50    C     0.12662   0.14901   0.37850   0.00000  Uiso   1.00
C51    C     0.05349   0.23510   0.38119   0.00000  Uiso   1.00
C52    C     0.24043   0.95836   0.48032   0.00000  Uiso   1.00
C53    C     0.23086   0.88471   0.46781   0.00000  Uiso   1.00
C54    C     0.22049   0.84291   0.54010   0.00000  Uiso   1.00
C55    C     0.20173   0.75182   0.63633   0.00000  Uiso   1.00
C56    C     0.31097   0.05003   0.43384   0.00000  Uiso   1.00
C57    C     0.36072   0.05343   0.38226   0.00000  Uiso   1.00
C58    C     0.40974   0.08879   0.41544   0.00000  Uiso   1.00
C59    C     0.50050   0.14003   0.43950   0.00000  Uiso   1.00
C60    C     0.25121   0.07072   0.56097   0.00000  Uiso   1.00
C61    C     0.20469   0.10328   0.50190   0.00000  Uiso   1.00
C62    C     0.16490   0.15752   0.52358   0.00000  Uiso   1.00
C63    C     0.12586   0.17988   0.46046   0.00000  Uiso   1.00
C64    C     0.23967   0.98917   0.56214   0.00000  Uiso   1.00
C65    C     0.22932   0.94746   0.63447   0.00000  Uiso   1.00
C66    C     0.21973   0.87377   0.62208   0.00000  Uiso   1.00
C67    C     0.31021   0.08084   0.51566   0.00000  Uiso   1.00
C68    C     0.35917   0.11619   0.54893   0.00000  Uiso   1.00
C69    C     0.40898   0.11965   0.49741   0.00000  Uiso   1.00
H70    H     0.25319   0.99001   0.34663   0.00000  Uiso   1.00
H71    H     0.16704   0.07090   0.29360   0.00000  Uiso   1.00
H72    H     0.23146   0.86088   0.40448   0.00000  Uiso   1.00
H73    H     0.36129   0.02958   0.31895   0.00000  Uiso   1.00
H74    H     0.07119   0.17415   0.27090   0.00000  Uiso   1.00
H75    H     0.20702   0.73131   0.50470   0.00000  Uiso   1.00
H76    H     0.48080   0.08705   0.32433   0.00000  Uiso   1.00
H77    H     0.25062   0.09470   0.62468   0.00000  Uiso   1.00
H78    H     0.16433   0.18135   0.58690   0.00000  Uiso   1.00
H79    H     0.22874   0.97132   0.69778   0.00000  Uiso   1.00
H80    H     0.35857   0.14002   0.61225   0.00000  Uiso   1.00
H81    H     0.06898   0.26379   0.50896   0.00000  Uiso   1.00
H82    H     0.20482   0.82095   0.74275   0.00000  Uiso   1.00
H83    H     0.47860   0.17669   0.56239   0.00000  Uiso   1.00
O84    O     0.01335   0.27406   0.36008   0.00000  Uiso   1.00
O85    O     0.19158   0.69307   0.66680   0.00000  Uiso   1.00
O86    O     0.55076   0.15979   0.43017   0.00000  Uiso   1.00
N87    N     0.08252   0.18337   0.33211   0.00000  Uiso   1.00
N88    N     0.20951   0.76934   0.55069   0.00000  Uiso   1.00
N89    N     0.46547   0.10191   0.38207   0.00000  Uiso   1.00
N90    N     0.08133   0.23160   0.46020   0.00000  Uiso   1.00
N91    N     0.20832   0.81757   0.67878   0.00000  Uiso   1.00
N92    N     0.46429   0.15014   0.51017   0.00000  Uiso   1.00
C93    C     0.73016   0.52067   0.09335   0.00000  Uiso   1.00
C94    C     0.67035   0.55117   0.06680   0.00000  Uiso   1.00
C95    C     0.61945   0.55049   0.11612   0.00000  Uiso   1.00
C96    C     0.56920   0.58108   0.08033   0.00000  Uiso   1.00
C97    C     0.47621   0.62381   0.05159   0.00000  Uiso   1.00
C98    C     0.74710   0.46575   0.02467   0.00000  Uiso   1.00
C99    C     0.76074   0.39325   0.03857   0.00000  Uiso   1.00
C100   C     0.77511   0.35195   0.96732   0.00000  Uiso   1.00
C101   C     0.80133   0.26208   0.87318   0.00000  Uiso   1.00
C102   C     0.77392   0.58315   0.08492   0.00000  Uiso   1.00
C103   C     0.81012   0.60936   0.14947   0.00000  Uiso   1.00
C104   C     0.84708   0.66689   0.12894   0.00000  Uiso   1.00
C105   C     0.91493   0.75931   0.12835   0.00000  Uiso   1.00
C106   C     0.73144   0.57622   0.94210   0.00000  Uiso   1.00
C107   C     0.67104   0.58133   0.98465   0.00000  Uiso   1.00
C108   C     0.62086   0.61194   0.94878   0.00000  Uiso   1.00
C109   C     0.56990   0.61131   0.99803   0.00000  Uiso   1.00
C110   C     0.74780   0.49591   0.94252   0.00000  Uiso   1.00
C111   C     0.76216   0.45471   0.87124   0.00000  Uiso   1.00
C112   C     0.77581   0.38217   0.88502   0.00000  Uiso   1.00
C113   C     0.77461   0.61332   0.00277   0.00000  Uiso   1.00
C114   C     0.81153   0.67082   0.98214   0.00000  Uiso   1.00
C115   C     0.84778   0.69712   0.04664   0.00000  Uiso   1.00
H116   H     0.72962   0.49718   0.15731   0.00000  Uiso   1.00
H117   H     0.61893   0.52713   0.17969   0.00000  Uiso   1.00
H118   H     0.76021   0.36992   0.10216   0.00000  Uiso   1.00
H119   H     0.80957   0.58600   0.21304   0.00000  Uiso   1.00
H120   H     0.49650   0.57361   0.16826   0.00000  Uiso   1.00
H121   H     0.79441   0.24215   0.00478   0.00000  Uiso   1.00
H122   H     0.89851   0.69779   0.23860   0.00000  Uiso   1.00
H123   H     0.73199   0.59970   0.87814   0.00000  Uiso   1.00
H124   H     0.62141   0.63529   0.88520   0.00000  Uiso   1.00
H125   H     0.76269   0.47808   0.80767   0.00000  Uiso   1.00
H126   H     0.81206   0.69416   0.91856   0.00000  Uiso   1.00
H127   H     0.49852   0.66140   0.92925   0.00000  Uiso   1.00
H128   H     0.79643   0.32993   0.76577   0.00000  Uiso   1.00
H129   H     0.90053   0.78557   0.99959   0.00000  Uiso   1.00
O130   O     0.42472   0.63904   0.05842   0.00000  Uiso   1.00
O131   O     0.81558   0.20417   0.84395   0.00000  Uiso   1.00
O132   O     0.95215   0.80196   0.15072   0.00000  Uiso   1.00
N133   N     0.51215   0.58940   0.11105   0.00000  Uiso   1.00
N134   N     0.79067   0.27950   0.95820   0.00000  Uiso   1.00
N135   N     0.88801   0.70547   0.17680   0.00000  Uiso   1.00
N136   N     0.51324   0.63664   0.98243   0.00000  Uiso   1.00
N137   N     0.79176   0.32673   0.82959   0.00000  Uiso   1.00
N138   N     0.88909   0.75271   0.04819   0.00000  Uiso   1.00
C139   C     0.74740   0.98600   0.41033   0.00000  Uiso   1.00
C140   C     0.79456   0.92753   0.42007   0.00000  Uiso   1.00
C141   C     0.83355   0.90524   0.35691   0.00000  Uiso   1.00
C142   C     0.87338   0.85099   0.37850   0.00000  Uiso   1.00
C143   C     0.94651   0.76490   0.38119   0.00000  Uiso   1.00
C144   C     0.75957   0.04164   0.48032   0.00000  Uiso   1.00
C145   C     0.76914   0.11529   0.46781   0.00000  Uiso   1.00
C146   C     0.77951   0.15709   0.54010   0.00000  Uiso   1.00
C147   C     0.79827   0.24818   0.63633   0.00000  Uiso   1.00
C148   C     0.68903   0.94997   0.43384   0.00000  Uiso   1.00
C149   C     0.63928   0.94657   0.38226   0.00000  Uiso   1.00
C150   C     0.59026   0.91121   0.41544   0.00000  Uiso   1.00
C151   C     0.49950   0.85997   0.43950   0.00000  Uiso   1.00
C152   C     0.74879   0.92928   0.56097   0.00000  Uiso   1.00
C153   C     0.79531   0.89672   0.50190   0.00000  Uiso   1.00
C154   C     0.83510   0.84248   0.52358   0.00000  Uiso   1.00
C155   C     0.87414   0.82012   0.46046   0.00000  Uiso   1.00
C156   C     0.76033   0.01083   0.56214   0.00000  Uiso   1.00
C157   C     0.77068   0.05254   0.63447   0.00000  Uiso   1.00
C158   C     0.78027   0.12623   0.62208   0.00000  Uiso   1.00
C159   C     0.68979   0.91916   0.51566   0.00000  Uiso   1.00
C160   C     0.64083   0.88381   0.54893   0.00000  Uiso   1.00
C161   C     0.59102   0.88035   0.49741   0.00000  Uiso   1.00
H162   H     0.74681   0.00999   0.34663   0.00000  Uiso   1.00
H163   H     0.83296   0.92910   0.29360   0.00000  Uiso   1.00
H164   H     0.76854   0.13912   0.40448   0.00000  Uiso   1.00
H165   H     0.63871   0.97042   0.31895   0.00000  Uiso   1.00
H166   H     0.92881   0.82585   0.27090   0.00000  Uiso   1.00
H167   H     0.79298   0.26869   0.50470   0.00000  Uiso   1.00
H168   H     0.51920   0.91295   0.32433   0.00000  Uiso   1.00
H169   H     0.74938   0.90530   0.62468   0.00000  Uiso   1.00
H170   H     0.83567   0.81865   0.58690   0.00000  Uiso   1.00
H171   H     0.77126   0.02868   0.69778   0.00000  Uiso   1.00
H172   H     0.64143   0.85998   0.61225   0.00000  Uiso   1.00
H173   H     0.93102   0.73621   0.50896   0.00000  Uiso   1.00
H174   H     0.79518   0.17905   0.74275   0.00000  Uiso   1.00
H175   H     0.52140   0.82331   0.56239   0.00000  Uiso   1.00
O176   O     0.98665   0.72594   0.36008   0.00000  Uiso   1.00
O177   O     0.80842   0.30693   0.66680   0.00000  Uiso   1.00
O178   O     0.44924   0.84021   0.43017   0.00000  Uiso   1.00
N179   N     0.91748   0.81663   0.33211   0.00000  Uiso   1.00
N180   N     0.79049   0.23066   0.55069   0.00000  Uiso   1.00
N181   N     0.53453   0.89809   0.38207   0.00000  Uiso   1.00
N182   N     0.91867   0.76840   0.46020   0.00000  Uiso   1.00
N183   N     0.79168   0.18243   0.67878   0.00000  Uiso   1.00
N184   N     0.53571   0.84986   0.51017   0.00000  Uiso   1.00
C185   C     0.23016   0.97933   0.90665   0.00000  Uiso   1.00
C186   C     0.17035   0.94883   0.93320   0.00000  Uiso   1.00
C187   C     0.11945   0.94951   0.88388   0.00000  Uiso   1.00
C188   C     0.06920   0.91892   0.91967   0.00000  Uiso   1.00
C189   C     0.97621   0.87619   0.94841   0.00000  Uiso   1.00
C190   C     0.24710   0.03425   0.97533   0.00000  Uiso   1.00
C191   C     0.26074   0.10675   0.96143   0.00000  Uiso   1.00
C192   C     0.27511   0.14805   0.03268   0.00000  Uiso   1.00
C193   C     0.30133   0.23792   0.12682   0.00000  Uiso   1.00
C194   C     0.27392   0.91685   0.91508   0.00000  Uiso   1.00
C195   C     0.31012   0.89064   0.85053   0.00000  Uiso   1.00
C196   C     0.34708   0.83311   0.87106   0.00000  Uiso   1.00
C197   C     0.41493   0.74069   0.87165   0.00000  Uiso   1.00
C198   C     0.23144   0.92378   0.05790   0.00000  Uiso   1.00
C199   C     0.17104   0.91867   0.01535   0.00000  Uiso   1.00
C200   C     0.12086   0.88806   0.05122   0.00000  Uiso   1.00
C201   C     0.06990   0.88869   0.00197   0.00000  Uiso   1.00
C202   C     0.24780   0.00409   0.05748   0.00000  Uiso   1.00
C203   C     0.26216   0.04529   0.12876   0.00000  Uiso   1.00
C204   C     0.27581   0.11783   0.11498   0.00000  Uiso   1.00
C205   C     0.27461   0.88668   0.99723   0.00000  Uiso   1.00
C206   C     0.31153   0.82918   0.01786   0.00000  Uiso   1.00
C207   C     0.34778   0.80288   0.95336   0.00000  Uiso   1.00
H208   H     0.22962   0.00282   0.84269   0.00000  Uiso   1.00
H209   H     0.11893   0.97287   0.82031   0.00000  Uiso   1.00
H210   H     0.26021   0.13008   0.89784   0.00000  Uiso   1.00
H211   H     0.30957   0.91400   0.78696   0.00000  Uiso   1.00
H212   H     0.99650   0.92639   0.83174   0.00000  Uiso   1.00
H213   H     0.29441   0.25785   0.99522   0.00000  Uiso   1.00
H214   H     0.39851   0.80221   0.76140   0.00000  Uiso   1.00
H215   H     0.23199   0.90030   0.12186   0.00000  Uiso   1.00
H216   H     0.12141   0.86471   0.11480   0.00000  Uiso   1.00
H217   H     0.26269   0.02192   0.19233   0.00000  Uiso   1.00
H218   H     0.31206   0.80584   0.08144   0.00000  Uiso   1.00
H219   H     0.99852   0.83860   0.07075   0.00000  Uiso   1.00
H220   H     0.29643   0.17007   0.23423   0.00000  Uiso   1.00
H221   H     0.40053   0.71443   0.00041   0.00000  Uiso   1.00
O222   O     0.92472   0.86096   0.94158   0.00000  Uiso   1.00
O223   O     0.31558   0.29583   0.15605   0.00000  Uiso   1.00
O224   O     0.45215   0.69804   0.84928   0.00000  Uiso   1.00
N225   N     0.01215   0.91060   0.88895   0.00000  Uiso   1.00
N226   N     0.29067   0.22050   0.04180   0.00000  Uiso   1.00
N227   N     0.38801   0.79453   0.82320   0.00000  Uiso   1.00
N228   N     0.01324   0.86336   0.01757   0.00000  Uiso   1.00
N229   N     0.29176   0.17327   0.17041   0.00000  Uiso   1.00
N230   N     0.38909   0.74729   0.95181   0.00000  Uiso   1.00
C231   C     0.24740   0.51400   0.58967   0.00000  Uiso   1.00
C232   C     0.29456   0.57247   0.57993   0.00000  Uiso   1.00
C233   C     0.33355   0.59476   0.64309   0.00000  Uiso   1.00
C234   C     0.37338   0.64901   0.62150   0.00000  Uiso   1.00
C235   C     0.44651   0.73510   0.61881   0.00000  Uiso   1.00
C236   C     0.25957   0.45836   0.51968   0.00000  Uiso   1.00
C237   C     0.26914   0.38471   0.53219   0.00000  Uiso   1.00
C238   C     0.27951   0.34291   0.45990   0.00000  Uiso   1.00
C239   C     0.29827   0.25182   0.36367   0.00000  Uiso   1.00
C240   C     0.18903   0.55003   0.56616   0.00000  Uiso   1.00
C241   C     0.13928   0.55343   0.61774   0.00000  Uiso   1.00
C242   C     0.09026   0.58879   0.58456   0.00000  Uiso   1.00
C243   C     0.99950   0.64003   0.56050   0.00000  Uiso   1.00
C244   C     0.24879   0.57072   0.43903   0.00000  Uiso   1.00
C245   C     0.29531   0.60328   0.49810   0.00000  Uiso   1.00
C246   C     0.33510   0.65752   0.47642   0.00000  Uiso   1.00
C247   C     0.37414   0.67988   0.53954   0.00000  Uiso   1.00
C248   C     0.26033   0.48917   0.43786   0.00000  Uiso   1.00
C249   C     0.27068   0.44746   0.36553   0.00000  Uiso   1.00
C250   C     0.28027   0.37377   0.37792   0.00000  Uiso   1.00
C251   C     0.18979   0.58084   0.48434   0.00000  Uiso   1.00
C252   C     0.14083   0.61619   0.45107   0.00000  Uiso   1.00
C253   C     0.09102   0.61965   0.50259   0.00000  Uiso   1.00
H254   H     0.24681   0.49001   0.65337   0.00000  Uiso   1.00
H255   H     0.33296   0.57090   0.70640   0.00000  Uiso   1.00
H256   H     0.26854   0.36088   0.59552   0.00000  Uiso   1.00
H257   H     0.13871   0.52958   0.68105   0.00000  Uiso   1.00
H258   H     0.42881   0.67415   0.72910   0.00000  Uiso   1.00
H259   H     0.29298   0.23131   0.49530   0.00000  Uiso   1.00
H260   H     0.01920   0.58705   0.67567   0.00000  Uiso   1.00
H261   H     0.24938   0.59470   0.37532   0.00000  Uiso   1.00
H262   H     0.33567   0.68135   0.41310   0.00000  Uiso   1.00
H263   H     0.27126   0.47132   0.30222   0.00000  Uiso   1.00
H264   H     0.14143   0.64002   0.38775   0.00000  Uiso   1.00
H265   H     0.43102   0.76379   0.49104   0.00000  Uiso   1.00
H266   H     0.29518   0.32095   0.25725   0.00000  Uiso   1.00
H267   H     0.02140   0.67669   0.43761   0.00000  Uiso   1.00
O268   O     0.48665   0.77406   0.63992   0.00000  Uiso   1.00
O269   O     0.30842   0.19307   0.33320   0.00000  Uiso   1.00
O270   O     0.94924   0.65979   0.56983   0.00000  Uiso   1.00
N271   N     0.41748   0.68337   0.66789   0.00000  Uiso   1.00
N272   N     0.29049   0.26934   0.44931   0.00000  Uiso   1.00
N273   N     0.03453   0.60191   0.61793   0.00000  Uiso   1.00
N274   N     0.41867   0.73160   0.53980   0.00000  Uiso   1.00
N275   N     0.29168   0.31757   0.32122   0.00000  Uiso   1.00
N276   N     0.03571   0.65014   0.48983   0.00000  Uiso   1.00
C277   C     0.76984   0.02067   0.90665   0.00000  Uiso   1.00
C278   C     0.82965   0.05117   0.93320   0.00000  Uiso   1.00
C279   C     0.88055   0.05049   0.88388   0.00000  Uiso   1.00
C280   C     0.93080   0.08108   0.91967   0.00000  Uiso   1.00
C281   C     0.02379   0.12381   0.94841   0.00000  Uiso   1.00
C282   C     0.75290   0.96575   0.97533   0.00000  Uiso   1.00
C283   C     0.73926   0.89325   0.96143   0.00000  Uiso   1.00
C284   C     0.72489   0.85195   0.03268   0.00000  Uiso   1.00
C285   C     0.69867   0.76208   0.12682   0.00000  Uiso   1.00
C286   C     0.72608   0.08315   0.91508   0.00000  Uiso   1.00
C287   C     0.68988   0.10936   0.85053   0.00000  Uiso   1.00
C288   C     0.65292   0.16689   0.87106   0.00000  Uiso   1.00
C289   C     0.58507   0.25931   0.87165   0.00000  Uiso   1.00
C290   C     0.76856   0.07622   0.05790   0.00000  Uiso   1.00
C291   C     0.82896   0.08133   0.01535   0.00000  Uiso   1.00
C292   C     0.87914   0.11194   0.05122   0.00000  Uiso   1.00
C293   C     0.93010   0.11131   0.00197   0.00000  Uiso   1.00
C294   C     0.75220   0.99591   0.05748   0.00000  Uiso   1.00
C295   C     0.73784   0.95471   0.12876   0.00000  Uiso   1.00
C296   C     0.72419   0.88217   0.11498   0.00000  Uiso   1.00
C297   C     0.72539   0.11332   0.99723   0.00000  Uiso   1.00
C298   C     0.68847   0.17082   0.01786   0.00000  Uiso   1.00
C299   C     0.65222   0.19712   0.95336   0.00000  Uiso   1.00
H300   H     0.77038   0.99718   0.84269   0.00000  Uiso   1.00
H301   H     0.88107   0.02713   0.82031   0.00000  Uiso   1.00
H302   H     0.73979   0.86992   0.89784   0.00000  Uiso   1.00
H303   H     0.69043   0.08600   0.78696   0.00000  Uiso   1.00
H304   H     0.00350   0.07361   0.83174   0.00000  Uiso   1.00
H305   H     0.70559   0.74215   0.99522   0.00000  Uiso   1.00
H306   H     0.60149   0.19779   0.76140   0.00000  Uiso   1.00
H307   H     0.76801   0.09970   0.12186   0.00000  Uiso   1.00
H308   H     0.87859   0.13529   0.11480   0.00000  Uiso   1.00
H309   H     0.73731   0.97808   0.19233   0.00000  Uiso   1.00
H310   H     0.68794   0.19416   0.08144   0.00000  Uiso   1.00
H311   H     0.00148   0.16140   0.07075   0.00000  Uiso   1.00
H312   H     0.70357   0.82993   0.23423   0.00000  Uiso   1.00
H313   H     0.59947   0.28557   0.00041   0.00000  Uiso   1.00
O314   O     0.07528   0.13904   0.94158   0.00000  Uiso   1.00
O315   O     0.68442   0.70417   0.15605   0.00000  Uiso   1.00
O316   O     0.54785   0.30196   0.84928   0.00000  Uiso   1.00
N317   N     0.98785   0.08940   0.88895   0.00000  Uiso   1.00
N318   N     0.70933   0.77950   0.04180   0.00000  Uiso   1.00
N319   N     0.61199   0.20547   0.82320   0.00000  Uiso   1.00
N320   N     0.98676   0.13664   0.01757   0.00000  Uiso   1.00
N321   N     0.70824   0.82673   0.17041   0.00000  Uiso   1.00
N322   N     0.61091   0.25271   0.95181   0.00000  Uiso   1.00
C323   C     0.75260   0.48600   0.58967   0.00000  Uiso   1.00
C324   C     0.70544   0.42753   0.57993   0.00000  Uiso   1.00
C325   C     0.66645   0.40524   0.64309   0.00000  Uiso   1.00
C326   C     0.62662   0.35099   0.62150   0.00000  Uiso   1.00
C327   C     0.55349   0.26490   0.61881   0.00000  Uiso   1.00
C328   C     0.74043   0.54164   0.51968   0.00000  Uiso   1.00
C329   C     0.73086   0.61529   0.53219   0.00000  Uiso   1.00
C330   C     0.72049   0.65709   0.45990   0.00000  Uiso   1.00
C331   C     0.70173   0.74818   0.36367   0.00000  Uiso   1.00
C332   C     0.81097   0.44997   0.56616   0.00000  Uiso   1.00
C333   C     0.86072   0.44657   0.61774   0.00000  Uiso   1.00
C334   C     0.90974   0.41121   0.58456   0.00000  Uiso   1.00
C335   C     0.00050   0.35997   0.56050   0.00000  Uiso   1.00
C336   C     0.75121   0.42928   0.43903   0.00000  Uiso   1.00
C337   C     0.70469   0.39672   0.49810   0.00000  Uiso   1.00
C338   C     0.66490   0.34248   0.47642   0.00000  Uiso   1.00
C339   C     0.62586   0.32012   0.53954   0.00000  Uiso   1.00
C340   C     0.73967   0.51083   0.43786   0.00000  Uiso   1.00
C341   C     0.72932   0.55254   0.36553   0.00000  Uiso   1.00
C342   C     0.71973   0.62623   0.37792   0.00000  Uiso   1.00
C343   C     0.81021   0.41916   0.48434   0.00000  Uiso   1.00
C344   C     0.85917   0.38381   0.45107   0.00000  Uiso   1.00
C345   C     0.90898   0.38035   0.50259   0.00000  Uiso   1.00
H346   H     0.75319   0.50999   0.65337   0.00000  Uiso   1.00
H347   H     0.66704   0.42910   0.70640   0.00000  Uiso   1.00
H348   H     0.73146   0.63912   0.59552   0.00000  Uiso   1.00
H349   H     0.86129   0.47042   0.68105   0.00000  Uiso   1.00
H350   H     0.57119   0.32585   0.72910   0.00000  Uiso   1.00
H351   H     0.70702   0.76869   0.49530   0.00000  Uiso   1.00
H352   H     0.98080   0.41295   0.67567   0.00000  Uiso   1.00
H353   H     0.75062   0.40530   0.37532   0.00000  Uiso   1.00
H354   H     0.66433   0.31865   0.41310   0.00000  Uiso   1.00
H355   H     0.72874   0.52868   0.30222   0.00000  Uiso   1.00
H356   H     0.85857   0.35998   0.38775   0.00000  Uiso   1.00
H357   H     0.56898   0.23621   0.49104   0.00000  Uiso   1.00
H358   H     0.70482   0.67905   0.25725   0.00000  Uiso   1.00
H359   H     0.97860   0.32331   0.43761   0.00000  Uiso   1.00
O360   O     0.51335   0.22594   0.63992   0.00000  Uiso   1.00
O361   O     0.69158   0.80693   0.33320   0.00000  Uiso   1.00
O362   O     0.05076   0.34021   0.56983   0.00000  Uiso   1.00
N363   N     0.58252   0.31663   0.66789   0.00000  Uiso   1.00
N364   N     0.70951   0.73066   0.44931   0.00000  Uiso   1.00
N365   N     0.96547   0.39809   0.61793   0.00000  Uiso   1.00
N366   N     0.58133   0.26840   0.53980   0.00000  Uiso   1.00
N367   N     0.70832   0.68243   0.32122   0.00000  Uiso   1.00
N368   N     0.96429   0.34986   0.48983   0.00000  Uiso   1.00
