data_job_05073
_audit_creation_date              2018-12-19
_audit_creation_method            'Materials Studio'
_symmetry_space_group_name_H-M    'P1'
_symmetry_Int_Tables_number       1
_symmetry_cell_setting            triclinic
loop_
_symmetry_equiv_pos_as_xyz
  x,y,z
_cell_length_a                    44.7922
_cell_length_b                    13.0873
_cell_length_c                    12.3369
_cell_angle_alpha                 90.0000
_cell_angle_beta                  100.5398
_cell_angle_gamma                 90.0000
loop_
_atom_site_label
_atom_site_type_symbol
_atom_site_fract_x
_atom_site_fract_y
_atom_site_fract_z
_atom_site_U_iso_or_equiv
_atom_site_adp_type
_atom_site_occupancy
C1     C     0.09715   0.80438   0.93523   0.00000  Uiso   1.00
C2     C     0.07701   0.74440   0.84399   0.00000  Uiso   1.00
C3     C     0.06404   0.78223   0.74103   0.00000  Uiso   1.00
C4     C     0.04634   0.71520   0.66914   0.00000  Uiso   1.00
C5     C     0.01575   0.63748   0.52290   0.00000  Uiso   1.00
C6     C     0.08197   0.79675   0.03596   0.00000  Uiso   1.00
C7     C     0.07318   0.87859   0.09442   0.00000  Uiso   1.00
C8     C     0.05966   0.85562   0.18415   0.00000  Uiso   1.00
C9     C     0.03680   0.85918   0.33600   0.00000  Uiso   1.00
C10    C     0.12671   0.74431   0.96372   0.00000  Uiso   1.00
C11    C     0.15555   0.78206   0.96147   0.00000  Uiso   1.00
C12    C     0.17970   0.71494   0.99040   0.00000  Uiso   1.00
C13    C     0.22630   0.63707   0.03010   0.00000  Uiso   1.00
C14    C     0.08876   0.61807   0.99065   0.00000  Uiso   1.00
C15    C     0.07245   0.64321   0.87409   0.00000  Uiso   1.00
C16    C     0.05477   0.57610   0.80234   0.00000  Uiso   1.00
C17    C     0.04178   0.61382   0.69929   0.00000  Uiso   1.00
C18    C     0.07742   0.69556   0.06606   0.00000  Uiso   1.00
C19    C     0.06391   0.67246   0.15573   0.00000  Uiso   1.00
C20    C     0.05510   0.75424   0.21430   0.00000  Uiso   1.00
C21    C     0.12216   0.64311   0.99382   0.00000  Uiso   1.00
C22    C     0.14627   0.57592   0.02277   0.00000  Uiso   1.00
C23    C     0.17514   0.61356   0.02056   0.00000  Uiso   1.00
H24    H     0.10069   0.88316   0.91180   0.00000  Uiso   1.00
H25    H     0.06757   0.86055   0.71777   0.00000  Uiso   1.00
H26    H     0.07671   0.95689   0.07111   0.00000  Uiso   1.00
H27    H     0.15906   0.86037   0.93817   0.00000  Uiso   1.00
H28    H     0.02883   0.79086   0.51594   0.00000  Uiso   1.00
H29    H     0.04812   0.99401   0.26100   0.00000  Uiso   1.00
H30    H     0.22177   0.79048   0.98068   0.00000  Uiso   1.00
H31    H     0.08522   0.53928   0.01409   0.00000  Uiso   1.00
H32    H     0.05125   0.49779   0.82566   0.00000  Uiso   1.00
H33    H     0.06039   0.59414   0.17900   0.00000  Uiso   1.00
H34    H     0.14274   0.49762   0.04606   0.00000  Uiso   1.00
H35    H     0.01558   0.49644   0.60350   0.00000  Uiso   1.00
H36    H     0.03487   0.69959   0.34858   0.00000  Uiso   1.00
H37    H     0.20852   0.49605   0.06825   0.00000  Uiso   1.00
O38    O     0.00013   0.62257   0.43394   0.00000  Uiso   1.00
O39    O     0.02544   0.88910   0.41144   0.00000  Uiso   1.00
O40    O     0.25327   0.62206   0.04366   0.00000  Uiso   1.00
N41    N     0.03038   0.72726   0.56240   0.00000  Uiso   1.00
N42    N     0.04841   0.91719   0.25898   0.00000  Uiso   1.00
N43    N     0.21076   0.72691   0.99693   0.00000  Uiso   1.00
N44    N     0.02325   0.56883   0.60951   0.00000  Uiso   1.00
N45    N     0.04128   0.75876   0.30610   0.00000  Uiso   1.00
N46    N     0.20363   0.56848   0.04405   0.00000  Uiso   1.00
C47    C     0.59715   0.30438   0.93523   0.00000  Uiso   1.00
C48    C     0.57701   0.24440   0.84399   0.00000  Uiso   1.00
C49    C     0.56404   0.28223   0.74103   0.00000  Uiso   1.00
C50    C     0.54634   0.21520   0.66914   0.00000  Uiso   1.00
C51    C     0.51575   0.13748   0.52290   0.00000  Uiso   1.00
C52    C     0.58197   0.29675   0.03596   0.00000  Uiso   1.00
C53    C     0.57318   0.37859   0.09442   0.00000  Uiso   1.00
C54    C     0.55966   0.35562   0.18415   0.00000  Uiso   1.00
C55    C     0.53680   0.35918   0.33600   0.00000  Uiso   1.00
C56    C     0.62671   0.24431   0.96372   0.00000  Uiso   1.00
C57    C     0.65555   0.28206   0.96147   0.00000  Uiso   1.00
C58    C     0.67970   0.21494   0.99040   0.00000  Uiso   1.00
C59    C     0.72630   0.13707   0.03010   0.00000  Uiso   1.00
C60    C     0.58876   0.11807   0.99065   0.00000  Uiso   1.00
C61    C     0.57245   0.14321   0.87409   0.00000  Uiso   1.00
C62    C     0.55477   0.07610   0.80234   0.00000  Uiso   1.00
C63    C     0.54178   0.11382   0.69929   0.00000  Uiso   1.00
C64    C     0.57742   0.19556   0.06606   0.00000  Uiso   1.00
C65    C     0.56391   0.17246   0.15573   0.00000  Uiso   1.00
C66    C     0.55510   0.25424   0.21430   0.00000  Uiso   1.00
C67    C     0.62216   0.14311   0.99382   0.00000  Uiso   1.00
C68    C     0.64627   0.07592   0.02277   0.00000  Uiso   1.00
C69    C     0.67514   0.11356   0.02056   0.00000  Uiso   1.00
H70    H     0.60069   0.38316   0.91180   0.00000  Uiso   1.00
H71    H     0.56757   0.36055   0.71777   0.00000  Uiso   1.00
H72    H     0.57671   0.45689   0.07111   0.00000  Uiso   1.00
H73    H     0.65906   0.36037   0.93817   0.00000  Uiso   1.00
H74    H     0.52883   0.29086   0.51594   0.00000  Uiso   1.00
H75    H     0.54812   0.49401   0.26100   0.00000  Uiso   1.00
H76    H     0.72177   0.29048   0.98068   0.00000  Uiso   1.00
H77    H     0.58522   0.03928   0.01409   0.00000  Uiso   1.00
H78    H     0.55125   0.99779   0.82566   0.00000  Uiso   1.00
H79    H     0.56039   0.09414   0.17900   0.00000  Uiso   1.00
H80    H     0.64274   0.99762   0.04606   0.00000  Uiso   1.00
H81    H     0.51558   0.99644   0.60350   0.00000  Uiso   1.00
H82    H     0.53487   0.19959   0.34858   0.00000  Uiso   1.00
H83    H     0.70852   0.99605   0.06825   0.00000  Uiso   1.00
O84    O     0.50013   0.12257   0.43394   0.00000  Uiso   1.00
O85    O     0.52544   0.38910   0.41144   0.00000  Uiso   1.00
O86    O     0.75327   0.12206   0.04366   0.00000  Uiso   1.00
N87    N     0.53038   0.22726   0.56240   0.00000  Uiso   1.00
N88    N     0.54841   0.41719   0.25898   0.00000  Uiso   1.00
N89    N     0.71076   0.22691   0.99693   0.00000  Uiso   1.00
N90    N     0.52325   0.06883   0.60951   0.00000  Uiso   1.00
N91    N     0.54128   0.25876   0.30610   0.00000  Uiso   1.00
N92    N     0.70363   0.06848   0.04405   0.00000  Uiso   1.00
C93    C     0.90285   0.80438   0.56477   0.00000  Uiso   1.00
C94    C     0.92299   0.74440   0.65601   0.00000  Uiso   1.00
C95    C     0.93596   0.78223   0.75897   0.00000  Uiso   1.00
C96    C     0.95366   0.71520   0.83086   0.00000  Uiso   1.00
C97    C     0.98425   0.63748   0.97710   0.00000  Uiso   1.00
C98    C     0.91803   0.79675   0.46404   0.00000  Uiso   1.00
C99    C     0.92682   0.87859   0.40558   0.00000  Uiso   1.00
C100   C     0.94034   0.85562   0.31585   0.00000  Uiso   1.00
C101   C     0.96320   0.85918   0.16400   0.00000  Uiso   1.00
C102   C     0.87329   0.74431   0.53628   0.00000  Uiso   1.00
C103   C     0.84445   0.78206   0.53853   0.00000  Uiso   1.00
C104   C     0.82030   0.71494   0.50960   0.00000  Uiso   1.00
C105   C     0.77370   0.63707   0.46990   0.00000  Uiso   1.00
C106   C     0.91124   0.61807   0.50935   0.00000  Uiso   1.00
C107   C     0.92755   0.64321   0.62591   0.00000  Uiso   1.00
C108   C     0.94523   0.57610   0.69766   0.00000  Uiso   1.00
C109   C     0.95822   0.61382   0.80071   0.00000  Uiso   1.00
C110   C     0.92258   0.69556   0.43394   0.00000  Uiso   1.00
C111   C     0.93609   0.67246   0.34427   0.00000  Uiso   1.00
C112   C     0.94490   0.75424   0.28570   0.00000  Uiso   1.00
C113   C     0.87784   0.64311   0.50618   0.00000  Uiso   1.00
C114   C     0.85373   0.57592   0.47723   0.00000  Uiso   1.00
C115   C     0.82486   0.61356   0.47944   0.00000  Uiso   1.00
H116   H     0.89931   0.88316   0.58820   0.00000  Uiso   1.00
H117   H     0.93243   0.86055   0.78223   0.00000  Uiso   1.00
H118   H     0.92329   0.95689   0.42889   0.00000  Uiso   1.00
H119   H     0.84094   0.86037   0.56183   0.00000  Uiso   1.00
H120   H     0.97117   0.79086   0.98406   0.00000  Uiso   1.00
H121   H     0.95188   0.99401   0.23900   0.00000  Uiso   1.00
H122   H     0.77823   0.79048   0.51932   0.00000  Uiso   1.00
H123   H     0.91478   0.53928   0.48591   0.00000  Uiso   1.00
H124   H     0.94875   0.49779   0.67434   0.00000  Uiso   1.00
H125   H     0.93961   0.59414   0.32100   0.00000  Uiso   1.00
H126   H     0.85726   0.49762   0.45394   0.00000  Uiso   1.00
H127   H     0.98442   0.49644   0.89650   0.00000  Uiso   1.00
H128   H     0.96513   0.69959   0.15142   0.00000  Uiso   1.00
H129   H     0.79148   0.49605   0.43175   0.00000  Uiso   1.00
O130   O     0.99987   0.62257   0.06606   0.00000  Uiso   1.00
O131   O     0.97456   0.88910   0.08856   0.00000  Uiso   1.00
O132   O     0.74673   0.62206   0.45634   0.00000  Uiso   1.00
N133   N     0.96962   0.72726   0.93760   0.00000  Uiso   1.00
N134   N     0.95159   0.91719   0.24102   0.00000  Uiso   1.00
N135   N     0.78924   0.72691   0.50307   0.00000  Uiso   1.00
N136   N     0.97675   0.56883   0.89049   0.00000  Uiso   1.00
N137   N     0.95872   0.75876   0.19390   0.00000  Uiso   1.00
N138   N     0.79637   0.56848   0.45595   0.00000  Uiso   1.00
C139   C     0.40285   0.30438   0.56477   0.00000  Uiso   1.00
C140   C     0.42299   0.24440   0.65601   0.00000  Uiso   1.00
C141   C     0.43596   0.28223   0.75897   0.00000  Uiso   1.00
C142   C     0.45366   0.21520   0.83086   0.00000  Uiso   1.00
C143   C     0.48425   0.13748   0.97710   0.00000  Uiso   1.00
C144   C     0.41803   0.29675   0.46404   0.00000  Uiso   1.00
C145   C     0.42682   0.37859   0.40558   0.00000  Uiso   1.00
C146   C     0.44034   0.35562   0.31585   0.00000  Uiso   1.00
C147   C     0.46320   0.35918   0.16400   0.00000  Uiso   1.00
C148   C     0.37329   0.24431   0.53628   0.00000  Uiso   1.00
C149   C     0.34445   0.28206   0.53853   0.00000  Uiso   1.00
C150   C     0.32030   0.21494   0.50960   0.00000  Uiso   1.00
C151   C     0.27370   0.13707   0.46990   0.00000  Uiso   1.00
C152   C     0.41124   0.11807   0.50935   0.00000  Uiso   1.00
C153   C     0.42755   0.14321   0.62591   0.00000  Uiso   1.00
C154   C     0.44523   0.07610   0.69766   0.00000  Uiso   1.00
C155   C     0.45822   0.11382   0.80071   0.00000  Uiso   1.00
C156   C     0.42258   0.19556   0.43394   0.00000  Uiso   1.00
C157   C     0.43609   0.17246   0.34427   0.00000  Uiso   1.00
C158   C     0.44490   0.25424   0.28570   0.00000  Uiso   1.00
C159   C     0.37784   0.14311   0.50618   0.00000  Uiso   1.00
C160   C     0.35373   0.07592   0.47723   0.00000  Uiso   1.00
C161   C     0.32486   0.11356   0.47944   0.00000  Uiso   1.00
H162   H     0.39931   0.38316   0.58820   0.00000  Uiso   1.00
H163   H     0.43243   0.36055   0.78223   0.00000  Uiso   1.00
H164   H     0.42329   0.45689   0.42889   0.00000  Uiso   1.00
H165   H     0.34094   0.36037   0.56183   0.00000  Uiso   1.00
H166   H     0.47117   0.29086   0.98406   0.00000  Uiso   1.00
H167   H     0.45188   0.49401   0.23900   0.00000  Uiso   1.00
H168   H     0.27823   0.29048   0.51932   0.00000  Uiso   1.00
H169   H     0.41478   0.03928   0.48591   0.00000  Uiso   1.00
H170   H     0.44875   0.99779   0.67434   0.00000  Uiso   1.00
H171   H     0.43961   0.09414   0.32100   0.00000  Uiso   1.00
H172   H     0.35726   0.99762   0.45394   0.00000  Uiso   1.00
H173   H     0.48442   0.99644   0.89650   0.00000  Uiso   1.00
H174   H     0.46513   0.19959   0.15142   0.00000  Uiso   1.00
H175   H     0.29148   0.99605   0.43175   0.00000  Uiso   1.00
O176   O     0.49987   0.12257   0.06606   0.00000  Uiso   1.00
O177   O     0.47456   0.38910   0.08856   0.00000  Uiso   1.00
O178   O     0.24673   0.12206   0.45634   0.00000  Uiso   1.00
N179   N     0.46962   0.22726   0.93760   0.00000  Uiso   1.00
N180   N     0.45159   0.41719   0.24102   0.00000  Uiso   1.00
N181   N     0.28924   0.22691   0.50307   0.00000  Uiso   1.00
N182   N     0.47675   0.06883   0.89049   0.00000  Uiso   1.00
N183   N     0.45872   0.25876   0.19390   0.00000  Uiso   1.00
N184   N     0.29637   0.06848   0.45595   0.00000  Uiso   1.00
C185   C     0.90285   0.19562   0.06477   0.00000  Uiso   1.00
C186   C     0.92299   0.25560   0.15601   0.00000  Uiso   1.00
C187   C     0.93596   0.21777   0.25897   0.00000  Uiso   1.00
C188   C     0.95366   0.28480   0.33086   0.00000  Uiso   1.00
C189   C     0.98425   0.36252   0.47710   0.00000  Uiso   1.00
C190   C     0.91803   0.20325   0.96404   0.00000  Uiso   1.00
C191   C     0.92682   0.12141   0.90558   0.00000  Uiso   1.00
C192   C     0.94034   0.14438   0.81585   0.00000  Uiso   1.00
C193   C     0.96320   0.14082   0.66400   0.00000  Uiso   1.00
C194   C     0.87329   0.25569   0.03628   0.00000  Uiso   1.00
C195   C     0.84445   0.21794   0.03853   0.00000  Uiso   1.00
C196   C     0.82030   0.28506   0.00960   0.00000  Uiso   1.00
C197   C     0.77370   0.36293   0.96990   0.00000  Uiso   1.00
C198   C     0.91124   0.38193   0.00935   0.00000  Uiso   1.00
C199   C     0.92755   0.35679   0.12591   0.00000  Uiso   1.00
C200   C     0.94523   0.42390   0.19766   0.00000  Uiso   1.00
C201   C     0.95822   0.38618   0.30071   0.00000  Uiso   1.00
C202   C     0.92258   0.30444   0.93394   0.00000  Uiso   1.00
C203   C     0.93609   0.32754   0.84427   0.00000  Uiso   1.00
C204   C     0.94490   0.24576   0.78570   0.00000  Uiso   1.00
C205   C     0.87784   0.35689   0.00618   0.00000  Uiso   1.00
C206   C     0.85373   0.42408   0.97723   0.00000  Uiso   1.00
C207   C     0.82486   0.38644   0.97944   0.00000  Uiso   1.00
H208   H     0.89931   0.11684   0.08820   0.00000  Uiso   1.00
H209   H     0.93243   0.13945   0.28223   0.00000  Uiso   1.00
H210   H     0.92329   0.04311   0.92889   0.00000  Uiso   1.00
H211   H     0.84094   0.13963   0.06183   0.00000  Uiso   1.00
H212   H     0.97117   0.20914   0.48406   0.00000  Uiso   1.00
H213   H     0.95188   0.00599   0.73900   0.00000  Uiso   1.00
H214   H     0.77823   0.20952   0.01932   0.00000  Uiso   1.00
H215   H     0.91478   0.46072   0.98591   0.00000  Uiso   1.00
H216   H     0.94875   0.50221   0.17434   0.00000  Uiso   1.00
H217   H     0.93961   0.40586   0.82100   0.00000  Uiso   1.00
H218   H     0.85726   0.50238   0.95394   0.00000  Uiso   1.00
H219   H     0.98442   0.50356   0.39650   0.00000  Uiso   1.00
H220   H     0.96513   0.30041   0.65142   0.00000  Uiso   1.00
H221   H     0.79148   0.50395   0.93175   0.00000  Uiso   1.00
O222   O     0.99987   0.37743   0.56606   0.00000  Uiso   1.00
O223   O     0.97456   0.11090   0.58856   0.00000  Uiso   1.00
O224   O     0.74673   0.37794   0.95634   0.00000  Uiso   1.00
N225   N     0.96962   0.27274   0.43760   0.00000  Uiso   1.00
N226   N     0.95159   0.08281   0.74102   0.00000  Uiso   1.00
N227   N     0.78924   0.27309   0.00307   0.00000  Uiso   1.00
N228   N     0.97675   0.43117   0.39049   0.00000  Uiso   1.00
N229   N     0.95872   0.24124   0.69390   0.00000  Uiso   1.00
N230   N     0.79637   0.43152   0.95595   0.00000  Uiso   1.00
C231   C     0.40285   0.69562   0.06477   0.00000  Uiso   1.00
C232   C     0.42299   0.75560   0.15601   0.00000  Uiso   1.00
C233   C     0.43596   0.71777   0.25897   0.00000  Uiso   1.00
C234   C     0.45366   0.78480   0.33086   0.00000  Uiso   1.00
C235   C     0.48425   0.86252   0.47710   0.00000  Uiso   1.00
C236   C     0.41803   0.70325   0.96404   0.00000  Uiso   1.00
C237   C     0.42682   0.62141   0.90558   0.00000  Uiso   1.00
C238   C     0.44034   0.64438   0.81585   0.00000  Uiso   1.00
C239   C     0.46320   0.64082   0.66400   0.00000  Uiso   1.00
C240   C     0.37329   0.75569   0.03628   0.00000  Uiso   1.00
C241   C     0.34445   0.71794   0.03853   0.00000  Uiso   1.00
C242   C     0.32030   0.78506   0.00960   0.00000  Uiso   1.00
C243   C     0.27370   0.86293   0.96990   0.00000  Uiso   1.00
C244   C     0.41124   0.88193   0.00935   0.00000  Uiso   1.00
C245   C     0.42755   0.85679   0.12591   0.00000  Uiso   1.00
C246   C     0.44523   0.92390   0.19766   0.00000  Uiso   1.00
C247   C     0.45822   0.88618   0.30071   0.00000  Uiso   1.00
C248   C     0.42258   0.80444   0.93394   0.00000  Uiso   1.00
C249   C     0.43609   0.82754   0.84427   0.00000  Uiso   1.00
C250   C     0.44490   0.74576   0.78570   0.00000  Uiso   1.00
C251   C     0.37784   0.85689   0.00618   0.00000  Uiso   1.00
C252   C     0.35373   0.92408   0.97723   0.00000  Uiso   1.00
C253   C     0.32486   0.88644   0.97944   0.00000  Uiso   1.00
H254   H     0.39931   0.61684   0.08820   0.00000  Uiso   1.00
H255   H     0.43243   0.63945   0.28223   0.00000  Uiso   1.00
H256   H     0.42329   0.54311   0.92889   0.00000  Uiso   1.00
H257   H     0.34094   0.63963   0.06183   0.00000  Uiso   1.00
H258   H     0.47117   0.70914   0.48406   0.00000  Uiso   1.00
H259   H     0.45188   0.50599   0.73900   0.00000  Uiso   1.00
H260   H     0.27823   0.70952   0.01932   0.00000  Uiso   1.00
H261   H     0.41478   0.96072   0.98591   0.00000  Uiso   1.00
H262   H     0.44875   0.00221   0.17434   0.00000  Uiso   1.00
H263   H     0.43961   0.90586   0.82100   0.00000  Uiso   1.00
H264   H     0.35726   0.00238   0.95394   0.00000  Uiso   1.00
H265   H     0.48442   0.00356   0.39650   0.00000  Uiso   1.00
H266   H     0.46513   0.80041   0.65142   0.00000  Uiso   1.00
H267   H     0.29148   0.00395   0.93175   0.00000  Uiso   1.00
O268   O     0.49987   0.87743   0.56606   0.00000  Uiso   1.00
O269   O     0.47456   0.61090   0.58856   0.00000  Uiso   1.00
O270   O     0.24673   0.87794   0.95634   0.00000  Uiso   1.00
N271   N     0.46962   0.77274   0.43760   0.00000  Uiso   1.00
N272   N     0.45159   0.58281   0.74102   0.00000  Uiso   1.00
N273   N     0.28924   0.77309   0.00307   0.00000  Uiso   1.00
N274   N     0.47675   0.93117   0.39049   0.00000  Uiso   1.00
N275   N     0.45872   0.74124   0.69390   0.00000  Uiso   1.00
N276   N     0.29637   0.93152   0.95595   0.00000  Uiso   1.00
C277   C     0.09715   0.19562   0.43523   0.00000  Uiso   1.00
C278   C     0.07701   0.25560   0.34399   0.00000  Uiso   1.00
C279   C     0.06404   0.21777   0.24103   0.00000  Uiso   1.00
C280   C     0.04634   0.28480   0.16914   0.00000  Uiso   1.00
C281   C     0.01575   0.36252   0.02290   0.00000  Uiso   1.00
C282   C     0.08197   0.20325   0.53596   0.00000  Uiso   1.00
C283   C     0.07318   0.12141   0.59442   0.00000  Uiso   1.00
C284   C     0.05966   0.14438   0.68415   0.00000  Uiso   1.00
C285   C     0.03680   0.14082   0.83600   0.00000  Uiso   1.00
C286   C     0.12671   0.25569   0.46372   0.00000  Uiso   1.00
C287   C     0.15555   0.21794   0.46147   0.00000  Uiso   1.00
C288   C     0.17970   0.28506   0.49040   0.00000  Uiso   1.00
C289   C     0.22630   0.36293   0.53010   0.00000  Uiso   1.00
C290   C     0.08876   0.38193   0.49065   0.00000  Uiso   1.00
C291   C     0.07245   0.35679   0.37409   0.00000  Uiso   1.00
C292   C     0.05477   0.42390   0.30234   0.00000  Uiso   1.00
C293   C     0.04178   0.38618   0.19929   0.00000  Uiso   1.00
C294   C     0.07742   0.30444   0.56606   0.00000  Uiso   1.00
C295   C     0.06391   0.32754   0.65573   0.00000  Uiso   1.00
C296   C     0.05510   0.24576   0.71430   0.00000  Uiso   1.00
C297   C     0.12216   0.35689   0.49382   0.00000  Uiso   1.00
C298   C     0.14627   0.42408   0.52277   0.00000  Uiso   1.00
C299   C     0.17514   0.38644   0.52056   0.00000  Uiso   1.00
H300   H     0.10069   0.11684   0.41180   0.00000  Uiso   1.00
H301   H     0.06757   0.13945   0.21777   0.00000  Uiso   1.00
H302   H     0.07671   0.04311   0.57111   0.00000  Uiso   1.00
H303   H     0.15906   0.13963   0.43817   0.00000  Uiso   1.00
H304   H     0.02883   0.20914   0.01594   0.00000  Uiso   1.00
H305   H     0.04812   0.00599   0.76100   0.00000  Uiso   1.00
H306   H     0.22177   0.20952   0.48068   0.00000  Uiso   1.00
H307   H     0.08522   0.46072   0.51409   0.00000  Uiso   1.00
H308   H     0.05125   0.50221   0.32566   0.00000  Uiso   1.00
H309   H     0.06039   0.40586   0.67900   0.00000  Uiso   1.00
H310   H     0.14274   0.50238   0.54606   0.00000  Uiso   1.00
H311   H     0.01558   0.50356   0.10350   0.00000  Uiso   1.00
H312   H     0.03487   0.30041   0.84858   0.00000  Uiso   1.00
H313   H     0.20852   0.50395   0.56825   0.00000  Uiso   1.00
O314   O     0.00013   0.37743   0.93394   0.00000  Uiso   1.00
O315   O     0.02544   0.11090   0.91144   0.00000  Uiso   1.00
O316   O     0.25327   0.37794   0.54366   0.00000  Uiso   1.00
N317   N     0.03038   0.27274   0.06240   0.00000  Uiso   1.00
N318   N     0.04841   0.08281   0.75898   0.00000  Uiso   1.00
N319   N     0.21076   0.27309   0.49693   0.00000  Uiso   1.00
N320   N     0.02325   0.43117   0.10951   0.00000  Uiso   1.00
N321   N     0.04128   0.24124   0.80610   0.00000  Uiso   1.00
N322   N     0.20363   0.43152   0.54405   0.00000  Uiso   1.00
C323   C     0.59715   0.69562   0.43523   0.00000  Uiso   1.00
C324   C     0.57701   0.75560   0.34399   0.00000  Uiso   1.00
C325   C     0.56404   0.71777   0.24103   0.00000  Uiso   1.00
C326   C     0.54634   0.78480   0.16914   0.00000  Uiso   1.00
C327   C     0.51575   0.86252   0.02290   0.00000  Uiso   1.00
C328   C     0.58197   0.70325   0.53596   0.00000  Uiso   1.00
C329   C     0.57318   0.62141   0.59442   0.00000  Uiso   1.00
C330   C     0.55966   0.64438   0.68415   0.00000  Uiso   1.00
C331   C     0.53680   0.64082   0.83600   0.00000  Uiso   1.00
C332   C     0.62671   0.75569   0.46372   0.00000  Uiso   1.00
C333   C     0.65555   0.71794   0.46147   0.00000  Uiso   1.00
C334   C     0.67970   0.78506   0.49040   0.00000  Uiso   1.00
C335   C     0.72630   0.86293   0.53010   0.00000  Uiso   1.00
C336   C     0.58876   0.88193   0.49065   0.00000  Uiso   1.00
C337   C     0.57245   0.85679   0.37409   0.00000  Uiso   1.00
C338   C     0.55477   0.92390   0.30234   0.00000  Uiso   1.00
C339   C     0.54178   0.88618   0.19929   0.00000  Uiso   1.00
C340   C     0.57742   0.80444   0.56606   0.00000  Uiso   1.00
C341   C     0.56391   0.82754   0.65573   0.00000  Uiso   1.00
C342   C     0.55510   0.74576   0.71430   0.00000  Uiso   1.00
C343   C     0.62216   0.85689   0.49382   0.00000  Uiso   1.00
C344   C     0.64627   0.92408   0.52277   0.00000  Uiso   1.00
C345   C     0.67514   0.88644   0.52056   0.00000  Uiso   1.00
H346   H     0.60069   0.61684   0.41180   0.00000  Uiso   1.00
H347   H     0.56757   0.63945   0.21777   0.00000  Uiso   1.00
H348   H     0.57671   0.54311   0.57111   0.00000  Uiso   1.00
H349   H     0.65906   0.63963   0.43817   0.00000  Uiso   1.00
H350   H     0.52883   0.70914   0.01594   0.00000  Uiso   1.00
H351   H     0.54812   0.50599   0.76100   0.00000  Uiso   1.00
H352   H     0.72177   0.70952   0.48068   0.00000  Uiso   1.00
H353   H     0.58522   0.96072   0.51409   0.00000  Uiso   1.00
H354   H     0.55125   0.00221   0.32566   0.00000  Uiso   1.00
H355   H     0.56039   0.90586   0.67900   0.00000  Uiso   1.00
H356   H     0.64274   0.00238   0.54606   0.00000  Uiso   1.00
H357   H     0.51558   0.00356   0.10350   0.00000  Uiso   1.00
H358   H     0.53487   0.80041   0.84858   0.00000  Uiso   1.00
H359   H     0.70852   0.00395   0.56825   0.00000  Uiso   1.00
O360   O     0.50013   0.87743   0.93394   0.00000  Uiso   1.00
O361   O     0.52544   0.61090   0.91144   0.00000  Uiso   1.00
O362   O     0.75327   0.87794   0.54366   0.00000  Uiso   1.00
N363   N     0.53038   0.77274   0.06240   0.00000  Uiso   1.00
N364   N     0.54841   0.58281   0.75898   0.00000  Uiso   1.00
N365   N     0.71076   0.77309   0.49693   0.00000  Uiso   1.00
N366   N     0.52325   0.93117   0.10951   0.00000  Uiso   1.00
N367   N     0.54128   0.74124   0.80610   0.00000  Uiso   1.00
N368   N     0.70363   0.93152   0.54405   0.00000  Uiso   1.00
