data_job_06749
_audit_creation_date              2018-12-19
_audit_creation_method            'Materials Studio'
_symmetry_space_group_name_H-M    'P1'
_symmetry_Int_Tables_number       1
_symmetry_cell_setting            triclinic
loop_
_symmetry_equiv_pos_as_xyz
  x,y,z
_cell_length_a                    22.5887
_cell_length_b                    23.0577
_cell_length_c                    23.5591
_cell_angle_alpha                 67.2962
_cell_angle_beta                  89.3192
_cell_angle_gamma                 62.6334
loop_
_atom_site_label
_atom_site_type_symbol
_atom_site_fract_x
_atom_site_fract_y
_atom_site_fract_z
_atom_site_U_iso_or_equiv
_atom_site_adp_type
_atom_site_occupancy
C1     C     0.86964   0.85691   0.52683   0.00000  Uiso   1.00
C2     C     0.91509   0.81381   0.59209   0.00000  Uiso   1.00
C3     C     0.95283   0.73902   0.62332   0.00000  Uiso   1.00
C4     C     0.99118   0.70997   0.68270   0.00000  Uiso   1.00
C5     C     0.06164   0.63632   0.77992   0.00000  Uiso   1.00
C6     C     0.79919   0.90508   0.53463   0.00000  Uiso   1.00
C7     C     0.73948   0.90704   0.51754   0.00000  Uiso   1.00
C8     C     0.68026   0.95482   0.52853   0.00000  Uiso   1.00
C9     C     0.57078   0.02292   0.53650   0.00000  Uiso   1.00
C10    C     0.89531   0.90762   0.48798   0.00000  Uiso   1.00
C11    C     0.91640   0.91171   0.43166   0.00000  Uiso   1.00
C12    C     0.93808   0.96164   0.40338   0.00000  Uiso   1.00
C13    C     0.97784   0.03367   0.33892   0.00000  Uiso   1.00
C14    C     0.87062   0.93831   0.57674   0.00000  Uiso   1.00
C15    C     0.91562   0.85803   0.61920   0.00000  Uiso   1.00
C16    C     0.95392   0.82908   0.67854   0.00000  Uiso   1.00
C17    C     0.99172   0.75425   0.70985   0.00000  Uiso   1.00
C18    C     0.79972   0.94929   0.56173   0.00000  Uiso   1.00
C19    C     0.74057   0.99709   0.57275   0.00000  Uiso   1.00
C20    C     0.68079   0.99912   0.55569   0.00000  Uiso   1.00
C21    C     0.89584   0.95183   0.51509   0.00000  Uiso   1.00
C22    C     0.91749   0.00177   0.48688   0.00000  Uiso   1.00
C23    C     0.93862   0.00594   0.43053   0.00000  Uiso   1.00
H24    H     0.86922   0.82249   0.50573   0.00000  Uiso   1.00
H25    H     0.95240   0.70483   0.60233   0.00000  Uiso   1.00
H26    H     0.73909   0.87282   0.49656   0.00000  Uiso   1.00
H27    H     0.91598   0.87749   0.41070   0.00000  Uiso   1.00
H28    H     0.04484   0.59387   0.72140   0.00000  Uiso   1.00
H29    H     0.59505   0.94811   0.49834   0.00000  Uiso   1.00
H30    H     0.96806   0.95797   0.31730   0.00000  Uiso   1.00
H31    H     0.87104   0.97273   0.59784   0.00000  Uiso   1.00
H32    H     0.95432   0.86330   0.69951   0.00000  Uiso   1.00
H33    H     0.74100   0.03130   0.59373   0.00000  Uiso   1.00
H34    H     0.91790   0.03597   0.50787   0.00000  Uiso   1.00
H35    H     0.04640   0.72249   0.80027   0.00000  Uiso   1.00
H36    H     0.59660   0.07674   0.57721   0.00000  Uiso   1.00
H37    H     0.96961   0.08659   0.39617   0.00000  Uiso   1.00
O38    O     0.10036   0.58348   0.82606   0.00000  Uiso   1.00
O39    O     0.51025   0.04825   0.53341   0.00000  Uiso   1.00
O40    O     0.99963   0.06117   0.29588   0.00000  Uiso   1.00
N41    N     0.03379   0.63916   0.72600   0.00000  Uiso   1.00
N42    N     0.61326   0.97035   0.51747   0.00000  Uiso   1.00
N43    N     0.96198   0.97957   0.34820   0.00000  Uiso   1.00
N44    N     0.03463   0.70837   0.76844   0.00000  Uiso   1.00
N45    N     0.61410   0.03956   0.55991   0.00000  Uiso   1.00
N46    N     0.96281   0.04878   0.39064   0.00000  Uiso   1.00
C47    C     0.24007   0.26564   0.12056   0.00000  Uiso   1.00
C48    C     0.29516   0.28514   0.09944   0.00000  Uiso   1.00
C49    C     0.35932   0.23846   0.09471   0.00000  Uiso   1.00
C50    C     0.40236   0.26670   0.07450   0.00000  Uiso   1.00
C51    C     0.49103   0.28597   0.04401   0.00000  Uiso   1.00
C52    C     0.22166   0.28457   0.17593   0.00000  Uiso   1.00
C53    C     0.22401   0.23742   0.23552   0.00000  Uiso   1.00
C54    C     0.20516   0.26519   0.27970   0.00000  Uiso   1.00
C55    C     0.17966   0.28359   0.36795   0.00000  Uiso   1.00
C56    C     0.17759   0.31845   0.06747   0.00000  Uiso   1.00
C57    C     0.14288   0.29978   0.03587   0.00000  Uiso   1.00
C58    C     0.08692   0.35608   0.98874   0.00000  Uiso   1.00
C59    C     0.99300   0.42708   0.90859   0.00000  Uiso   1.00
C60    C     0.20241   0.39880   0.09307   0.00000  Uiso   1.00
C61    C     0.27471   0.35747   0.08451   0.00000  Uiso   1.00
C62    C     0.31766   0.38579   0.06430   0.00000  Uiso   1.00
C63    C     0.38187   0.33916   0.05954   0.00000  Uiso   1.00
C64    C     0.20120   0.35690   0.16100   0.00000  Uiso   1.00
C65    C     0.18234   0.38475   0.20510   0.00000  Uiso   1.00
C66    C     0.18467   0.33765   0.26474   0.00000  Uiso   1.00
C67    C     0.15714   0.39078   0.05254   0.00000  Uiso   1.00
C68    C     0.10122   0.44712   0.00545   0.00000  Uiso   1.00
C69    C     0.06643   0.42854   0.97378   0.00000  Uiso   1.00
H70    H     0.25600   0.20933   0.13219   0.00000  Uiso   1.00
H71    H     0.37514   0.18248   0.10628   0.00000  Uiso   1.00
H72    H     0.23983   0.18145   0.24706   0.00000  Uiso   1.00
H73    H     0.15872   0.24381   0.04744   0.00000  Uiso   1.00
H74    H     0.49821   0.18462   0.07099   0.00000  Uiso   1.00
H75    H     0.21289   0.18244   0.36783   0.00000  Uiso   1.00
H76    H     0.04186   0.31393   0.94689   0.00000  Uiso   1.00
H77    H     0.18649   0.45512   0.08144   0.00000  Uiso   1.00
H78    H     0.30182   0.44177   0.05274   0.00000  Uiso   1.00
H79    H     0.16651   0.44073   0.19353   0.00000  Uiso   1.00
H80    H     0.08541   0.50308   0.99391   0.00000  Uiso   1.00
H81    H     0.43871   0.39506   0.02754   0.00000  Uiso   1.00
H82    H     0.15338   0.39288   0.32438   0.00000  Uiso   1.00
H83    H     0.98235   0.52437   0.90344   0.00000  Uiso   1.00
O84    O     0.54559   0.27661   0.03133   0.00000  Uiso   1.00
O85    O     0.17125   0.27376   0.42076   0.00000  Uiso   1.00
O86    O     0.94686   0.44627   0.86850   0.00000  Uiso   1.00
N87    N     0.46838   0.23598   0.06469   0.00000  Uiso   1.00
N88    N     0.20163   0.23394   0.34222   0.00000  Uiso   1.00
N89    N     0.04171   0.35687   0.94869   0.00000  Uiso   1.00
N90    N     0.43636   0.34922   0.04131   0.00000  Uiso   1.00
N91    N     0.16961   0.34718   0.31884   0.00000  Uiso   1.00
N92    N     0.00969   0.47011   0.92531   0.00000  Uiso   1.00
C93    C     0.47185   0.69923   0.72883   0.00000  Uiso   1.00
C94    C     0.40930   0.74540   0.67574   0.00000  Uiso   1.00
C95    C     0.40340   0.73669   0.62137   0.00000  Uiso   1.00
C96    C     0.34199   0.78447   0.57850   0.00000  Uiso   1.00
C97    C     0.25301   0.84789   0.49436   0.00000  Uiso   1.00
C98    C     0.49109   0.75155   0.73639   0.00000  Uiso   1.00
C99    C     0.55397   0.74802   0.73302   0.00000  Uiso   1.00
C100   C     0.56140   0.80098   0.74121   0.00000  Uiso   1.00
C101   C     0.59943   0.87392   0.75126   0.00000  Uiso   1.00
C102   C     0.44762   0.66951   0.78844   0.00000  Uiso   1.00
C103   C     0.47396   0.59699   0.82884   0.00000  Uiso   1.00
C104   C     0.44480   0.58087   0.88086   0.00000  Uiso   1.00
C105   C     0.41533   0.52643   0.97172   0.00000  Uiso   1.00
C106   C     0.37327   0.79956   0.74938   0.00000  Uiso   1.00
C107   C     0.35575   0.79989   0.68691   0.00000  Uiso   1.00
C108   C     0.29433   0.84769   0.64411   0.00000  Uiso   1.00
C109   C     0.28834   0.83906   0.58968   0.00000  Uiso   1.00
C110   C     0.43755   0.80604   0.74755   0.00000  Uiso   1.00
C111   C     0.44489   0.85902   0.75575   0.00000  Uiso   1.00
C112   C     0.50776   0.85557   0.75239   0.00000  Uiso   1.00
C113   C     0.39407   0.72400   0.79960   0.00000  Uiso   1.00
C114   C     0.36488   0.70799   0.85157   0.00000  Uiso   1.00
C115   C     0.39116   0.63546   0.89204   0.00000  Uiso   1.00
H116   H     0.51355   0.65681   0.72014   0.00000  Uiso   1.00
H117   H     0.44486   0.69452   0.61275   0.00000  Uiso   1.00
H118   H     0.59540   0.70584   0.72438   0.00000  Uiso   1.00
H119   H     0.51539   0.55484   0.82018   0.00000  Uiso   1.00
H120   H     0.34510   0.76038   0.49859   0.00000  Uiso   1.00
H121   H     0.66253   0.78423   0.73400   0.00000  Uiso   1.00
H122   H     0.49383   0.46581   0.93602   0.00000  Uiso   1.00
H123   H     0.33158   0.84198   0.75808   0.00000  Uiso   1.00
H124   H     0.25290   0.88985   0.65276   0.00000  Uiso   1.00
H125   H     0.40345   0.90117   0.76440   0.00000  Uiso   1.00
H126   H     0.32344   0.75017   0.86020   0.00000  Uiso   1.00
H127   H     0.18930   0.91892   0.53107   0.00000  Uiso   1.00
H128   H     0.50673   0.94277   0.76648   0.00000  Uiso   1.00
H129   H     0.33803   0.62435   0.96850   0.00000  Uiso   1.00
O130   O     0.21873   0.86781   0.44486   0.00000  Uiso   1.00
O131   O     0.63519   0.89910   0.75372   0.00000  Uiso   1.00
O132   O     0.41386   0.48134   0.01876   0.00000  Uiso   1.00
N133   N     0.31922   0.79111   0.52070   0.00000  Uiso   1.00
N134   N     0.61600   0.81342   0.74078   0.00000  Uiso   1.00
N135   N     0.45829   0.51572   0.92966   0.00000  Uiso   1.00
N136   N     0.23539   0.87642   0.53817   0.00000  Uiso   1.00
N137   N     0.53216   0.89873   0.75826   0.00000  Uiso   1.00
N138   N     0.37446   0.60103   0.94713   0.00000  Uiso   1.00
C139   C     0.96277   0.27354   0.61696   0.00000  Uiso   1.00
C140   C     0.88842   0.29590   0.59837   0.00000  Uiso   1.00
C141   C     0.86493   0.25246   0.59155   0.00000  Uiso   1.00
C142   C     0.79502   0.28294   0.57426   0.00000  Uiso   1.00
C143   C     0.68637   0.30680   0.54696   0.00000  Uiso   1.00
C144   C     0.96768   0.28650   0.67506   0.00000  Uiso   1.00
C145   C     0.01085   0.23515   0.73271   0.00000  Uiso   1.00
C146   C     0.00767   0.25774   0.77998   0.00000  Uiso   1.00
C147   C     0.02213   0.26701   0.87173   0.00000  Uiso   1.00
C148   C     0.97574   0.32827   0.56472   0.00000  Uiso   1.00
C149   C     0.02570   0.31203   0.52961   0.00000  Uiso   1.00
C150   C     0.02931   0.36978   0.48399   0.00000  Uiso   1.00
C151   C     0.05628   0.44390   0.40443   0.00000  Uiso   1.00
C152   C     0.88038   0.40495   0.59839   0.00000  Uiso   1.00
C153   C     0.84367   0.36728   0.58829   0.00000  Uiso   1.00
C154   C     0.77377   0.39784   0.57100   0.00000  Uiso   1.00
C155   C     0.75018   0.35445   0.56415   0.00000  Uiso   1.00
C156   C     0.92293   0.35788   0.66498   0.00000  Uiso   1.00
C157   C     0.91969   0.38054   0.71217   0.00000  Uiso   1.00
C158   C     0.96284   0.32924   0.76988   0.00000  Uiso   1.00
C159   C     0.93099   0.39964   0.55464   0.00000  Uiso   1.00
C160   C     0.93453   0.45742   0.50907   0.00000  Uiso   1.00
C161   C     0.98448   0.44129   0.47389   0.00000  Uiso   1.00
H162   H     0.99761   0.21797   0.62481   0.00000  Uiso   1.00
H163   H     0.89958   0.19722   0.59936   0.00000  Uiso   1.00
H164   H     0.04548   0.17993   0.74050   0.00000  Uiso   1.00
H165   H     0.06032   0.25679   0.53743   0.00000  Uiso   1.00
H166   H     0.77115   0.20568   0.56672   0.00000  Uiso   1.00
H167   H     0.07881   0.16922   0.86432   0.00000  Uiso   1.00
H168   H     0.11010   0.33131   0.43610   0.00000  Uiso   1.00
H169   H     0.84553   0.46052   0.59054   0.00000  Uiso   1.00
H170   H     0.73915   0.45308   0.56320   0.00000  Uiso   1.00
H171   H     0.88506   0.43578   0.70435   0.00000  Uiso   1.00
H172   H     0.89989   0.51265   0.50127   0.00000  Uiso   1.00
H173   H     0.64094   0.41334   0.53737   0.00000  Uiso   1.00
H174   H     0.94861   0.37689   0.83497   0.00000  Uiso   1.00
H175   H     0.97990   0.53898   0.40676   0.00000  Uiso   1.00
O176   O     0.63881   0.30023   0.53470   0.00000  Uiso   1.00
O177   O     0.04246   0.25240   0.92513   0.00000  Uiso   1.00
O178   O     0.08351   0.46506   0.36333   0.00000  Uiso   1.00
N179   N     0.75511   0.25558   0.56355   0.00000  Uiso   1.00
N180   N     0.04275   0.22149   0.84179   0.00000  Uiso   1.00
N181   N     0.07201   0.37303   0.44146   0.00000  Uiso   1.00
N182   N     0.68504   0.36732   0.54776   0.00000  Uiso   1.00
N183   N     0.97268   0.33323   0.82600   0.00000  Uiso   1.00
N184   N     0.00195   0.48477   0.42567   0.00000  Uiso   1.00
C185   C     0.33777   0.72484   0.23373   0.00000  Uiso   1.00
C186   C     0.35733   0.77144   0.17999   0.00000  Uiso   1.00
C187   C     0.37164   0.76309   0.12531   0.00000  Uiso   1.00
C188   C     0.38850   0.81124   0.08184   0.00000  Uiso   1.00
C189   C     0.41846   0.87532   0.99673   0.00000  Uiso   1.00
C190   C     0.26967   0.77675   0.24228   0.00000  Uiso   1.00
C191   C     0.21029   0.77286   0.23996   0.00000  Uiso   1.00
C192   C     0.15335   0.82548   0.24894   0.00000  Uiso   1.00
C193   C     0.04725   0.89779   0.26057   0.00000  Uiso   1.00
C194   C     0.38936   0.69511   0.29267   0.00000  Uiso   1.00
C195   C     0.43061   0.62257   0.33273   0.00000  Uiso   1.00
C196   C     0.47444   0.60645   0.38414   0.00000  Uiso   1.00
C197   C     0.55418   0.55198   0.47401   0.00000  Uiso   1.00
C198   C     0.34224   0.82519   0.25379   0.00000  Uiso   1.00
C199   C     0.35975   0.82594   0.19089   0.00000  Uiso   1.00
C200   C     0.37659   0.87411   0.14750   0.00000  Uiso   1.00
C201   C     0.39093   0.86584   0.09276   0.00000  Uiso   1.00
C202   C     0.27209   0.83126   0.25317   0.00000  Uiso   1.00
C203   C     0.21524   0.88389   0.26216   0.00000  Uiso   1.00
C204   C     0.15579   0.88009   0.25986   0.00000  Uiso   1.00
C205   C     0.39179   0.74961   0.30356   0.00000  Uiso   1.00
C206   C     0.43556   0.73360   0.35493   0.00000  Uiso   1.00
C207   C     0.47687   0.66105   0.39506   0.00000  Uiso   1.00
H208   H     0.33587   0.68241   0.22525   0.00000  Uiso   1.00
H209   H     0.36975   0.72090   0.11689   0.00000  Uiso   1.00
H210   H     0.20843   0.73067   0.23154   0.00000  Uiso   1.00
H211   H     0.42872   0.58040   0.32429   0.00000  Uiso   1.00
H212   H     0.40836   0.78764   0.00155   0.00000  Uiso   1.00
H213   H     0.06820   0.80823   0.24331   0.00000  Uiso   1.00
H214   H     0.53273   0.49135   0.43889   0.00000  Uiso   1.00
H215   H     0.34413   0.86763   0.26228   0.00000  Uiso   1.00
H216   H     0.37847   0.91629   0.15595   0.00000  Uiso   1.00
H217   H     0.21714   0.92606   0.27059   0.00000  Uiso   1.00
H218   H     0.43743   0.77579   0.36334   0.00000  Uiso   1.00
H219   H     0.41543   0.94622   0.03325   0.00000  Uiso   1.00
H220   H     0.07527   0.96681   0.27501   0.00000  Uiso   1.00
H221   H     0.53980   0.64993   0.47059   0.00000  Uiso   1.00
O222   O     0.43431   0.89562   0.94677   0.00000  Uiso   1.00
O223   O     0.98804   0.92261   0.26397   0.00000  Uiso   1.00
O224   O     0.59749   0.50688   0.52057   0.00000  Uiso   1.00
N225   N     0.40533   0.81828   0.02361   0.00000  Uiso   1.00
N226   N     0.08730   0.83753   0.24963   0.00000  Uiso   1.00
N227   N     0.52158   0.54128   0.43249   0.00000  Uiso   1.00
N228   N     0.40913   0.90361   0.04066   0.00000  Uiso   1.00
N229   N     0.09110   0.92286   0.26669   0.00000  Uiso   1.00
N230   N     0.52538   0.62661   0.44955   0.00000  Uiso   1.00
C231   C     0.76521   0.85529   0.05585   0.00000  Uiso   1.00
C232   C     0.77879   0.78457   0.11004   0.00000  Uiso   1.00
C233   C     0.83627   0.71763   0.12650   0.00000  Uiso   1.00
C234   C     0.83908   0.65949   0.17758   0.00000  Uiso   1.00
C235   C     0.86822   0.54838   0.25667   0.00000  Uiso   1.00
C236   C     0.75290   0.90771   0.08479   0.00000  Uiso   1.00
C237   C     0.78861   0.94431   0.08002   0.00000  Uiso   1.00
C238   C     0.76961   0.98984   0.10984   0.00000  Uiso   1.00
C239   C     0.75852   0.06994   0.14968   0.00000  Uiso   1.00
C240   C     0.69730   0.88441   0.01482   0.00000  Uiso   1.00
C241   C     0.68625   0.90146   0.95122   0.00000  Uiso   1.00
C242   C     0.62044   0.92739   0.92213   0.00000  Uiso   1.00
C243   C     0.52303   0.97133   0.85335   0.00000  Uiso   1.00
C244   C     0.66797   0.87107   0.11728   0.00000  Uiso   1.00
C245   C     0.72597   0.79314   0.14340   0.00000  Uiso   1.00
C246   C     0.72869   0.73509   0.19447   0.00000  Uiso   1.00
C247   C     0.78617   0.66808   0.21101   0.00000  Uiso   1.00
C248   C     0.70009   0.91628   0.11815   0.00000  Uiso   1.00
C249   C     0.68103   0.96177   0.14798   0.00000  Uiso   1.00
C250   C     0.71670   0.99843   0.14327   0.00000  Uiso   1.00
C251   C     0.64448   0.89299   0.04819   0.00000  Uiso   1.00
C252   C     0.57867   0.91891   0.01919   0.00000  Uiso   1.00
C253   C     0.56753   0.93598   0.95556   0.00000  Uiso   1.00
H254   H     0.80633   0.84862   0.02987   0.00000  Uiso   1.00
H255   H     0.87714   0.71102   0.10067   0.00000  Uiso   1.00
H256   H     0.82948   0.93767   0.05419   0.00000  Uiso   1.00
H257   H     0.72714   0.89482   0.92542   0.00000  Uiso   1.00
H258   H     0.93237   0.56225   0.19390   0.00000  Uiso   1.00
H259   H     0.83185   0.04017   0.09587   0.00000  Uiso   1.00
H260   H     0.61605   0.94981   0.82432   0.00000  Uiso   1.00
H261   H     0.62685   0.87775   0.14326   0.00000  Uiso   1.00
H262   H     0.68781   0.74174   0.22028   0.00000  Uiso   1.00
H263   H     0.64015   0.96839   0.17380   0.00000  Uiso   1.00
H264   H     0.53781   0.92554   0.04503   0.00000  Uiso   1.00
H265   H     0.77870   0.58718   0.29098   0.00000  Uiso   1.00
H266   H     0.67818   0.06511   0.19294   0.00000  Uiso   1.00
H267   H     0.46239   0.97474   0.92140   0.00000  Uiso   1.00
O268   O     0.89889   0.48473   0.29107   0.00000  Uiso   1.00
O269   O     0.76700   0.11175   0.16245   0.00000  Uiso   1.00
O270   O     0.48389   0.99319   0.80620   0.00000  Uiso   1.00
N271   N     0.88783   0.58678   0.20617   0.00000  Uiso   1.00
N272   N     0.79386   0.03360   0.11452   0.00000  Uiso   1.00
N273   N     0.59210   0.94914   0.86065   0.00000  Uiso   1.00
N274   N     0.80514   0.60020   0.25840   0.00000  Uiso   1.00
N275   N     0.71117   0.04702   0.16676   0.00000  Uiso   1.00
N276   N     0.50942   0.96255   0.91289   0.00000  Uiso   1.00
C277   C     0.13036   0.14309   0.47317   0.00000  Uiso   1.00
C278   C     0.08491   0.18619   0.40791   0.00000  Uiso   1.00
C279   C     0.04717   0.26098   0.37668   0.00000  Uiso   1.00
C280   C     0.00882   0.29003   0.31730   0.00000  Uiso   1.00
C281   C     0.93836   0.36368   0.22008   0.00000  Uiso   1.00
C282   C     0.20081   0.09492   0.46537   0.00000  Uiso   1.00
C283   C     0.26052   0.09296   0.48246   0.00000  Uiso   1.00
C284   C     0.31974   0.04518   0.47147   0.00000  Uiso   1.00
C285   C     0.42922   0.97708   0.46350   0.00000  Uiso   1.00
C286   C     0.10469   0.09238   0.51202   0.00000  Uiso   1.00
C287   C     0.08360   0.08829   0.56834   0.00000  Uiso   1.00
C288   C     0.06192   0.03836   0.59662   0.00000  Uiso   1.00
C289   C     0.02216   0.96633   0.66108   0.00000  Uiso   1.00
C290   C     0.12938   0.06169   0.42326   0.00000  Uiso   1.00
C291   C     0.08438   0.14197   0.38080   0.00000  Uiso   1.00
C292   C     0.04608   0.17092   0.32146   0.00000  Uiso   1.00
C293   C     0.00828   0.24575   0.29015   0.00000  Uiso   1.00
C294   C     0.20028   0.05071   0.43827   0.00000  Uiso   1.00
C295   C     0.25943   0.00291   0.42725   0.00000  Uiso   1.00
C296   C     0.31921   0.00088   0.44431   0.00000  Uiso   1.00
C297   C     0.10416   0.04817   0.48491   0.00000  Uiso   1.00
C298   C     0.08251   0.99823   0.51312   0.00000  Uiso   1.00
C299   C     0.06138   0.99406   0.56947   0.00000  Uiso   1.00
H300   H     0.13078   0.17751   0.49427   0.00000  Uiso   1.00
H301   H     0.04760   0.29517   0.39767   0.00000  Uiso   1.00
H302   H     0.26091   0.12718   0.50344   0.00000  Uiso   1.00
H303   H     0.08402   0.12251   0.58930   0.00000  Uiso   1.00
H304   H     0.95516   0.40613   0.27860   0.00000  Uiso   1.00
H305   H     0.40495   0.05189   0.50166   0.00000  Uiso   1.00
H306   H     0.03194   0.04203   0.68270   0.00000  Uiso   1.00
H307   H     0.12896   0.02727   0.40216   0.00000  Uiso   1.00
H308   H     0.04568   0.13670   0.30049   0.00000  Uiso   1.00
H309   H     0.25900   0.96870   0.40627   0.00000  Uiso   1.00
H310   H     0.08210   0.96403   0.49213   0.00000  Uiso   1.00
H311   H     0.95360   0.27751   0.19973   0.00000  Uiso   1.00
H312   H     0.40340   0.92326   0.42279   0.00000  Uiso   1.00
H313   H     0.03039   0.91341   0.60383   0.00000  Uiso   1.00
O314   O     0.89964   0.41652   0.17394   0.00000  Uiso   1.00
O315   O     0.48975   0.95175   0.46659   0.00000  Uiso   1.00
O316   O     0.00037   0.93883   0.70412   0.00000  Uiso   1.00
N317   N     0.96621   0.36084   0.27400   0.00000  Uiso   1.00
N318   N     0.38674   0.02965   0.48253   0.00000  Uiso   1.00
N319   N     0.03802   0.02043   0.65180   0.00000  Uiso   1.00
N320   N     0.96537   0.29163   0.23156   0.00000  Uiso   1.00
N321   N     0.38590   0.96044   0.44009   0.00000  Uiso   1.00
N322   N     0.03719   0.95122   0.60936   0.00000  Uiso   1.00
C323   C     0.75993   0.73436   0.87944   0.00000  Uiso   1.00
C324   C     0.70484   0.71486   0.90056   0.00000  Uiso   1.00
C325   C     0.64068   0.76154   0.90529   0.00000  Uiso   1.00
C326   C     0.59764   0.73330   0.92550   0.00000  Uiso   1.00
C327   C     0.50897   0.71403   0.95599   0.00000  Uiso   1.00
C328   C     0.77834   0.71543   0.82407   0.00000  Uiso   1.00
C329   C     0.77599   0.76258   0.76448   0.00000  Uiso   1.00
C330   C     0.79484   0.73481   0.72030   0.00000  Uiso   1.00
C331   C     0.82034   0.71641   0.63205   0.00000  Uiso   1.00
C332   C     0.82241   0.68155   0.93253   0.00000  Uiso   1.00
C333   C     0.85712   0.70022   0.96413   0.00000  Uiso   1.00
C334   C     0.91308   0.64392   0.01126   0.00000  Uiso   1.00
C335   C     0.00700   0.57292   0.09141   0.00000  Uiso   1.00
C336   C     0.79759   0.60120   0.90693   0.00000  Uiso   1.00
C337   C     0.72529   0.64253   0.91549   0.00000  Uiso   1.00
C338   C     0.68234   0.61421   0.93570   0.00000  Uiso   1.00
C339   C     0.61813   0.66084   0.94046   0.00000  Uiso   1.00
C340   C     0.79880   0.64310   0.83900   0.00000  Uiso   1.00
C341   C     0.81766   0.61525   0.79490   0.00000  Uiso   1.00
C342   C     0.81533   0.66235   0.73526   0.00000  Uiso   1.00
C343   C     0.84286   0.60922   0.94746   0.00000  Uiso   1.00
C344   C     0.89878   0.55288   0.99455   0.00000  Uiso   1.00
C345   C     0.93357   0.57146   0.02622   0.00000  Uiso   1.00
H346   H     0.74400   0.79067   0.86781   0.00000  Uiso   1.00
H347   H     0.62486   0.81752   0.89372   0.00000  Uiso   1.00
H348   H     0.76017   0.81855   0.75294   0.00000  Uiso   1.00
H349   H     0.84128   0.75619   0.95256   0.00000  Uiso   1.00
H350   H     0.50179   0.81538   0.92901   0.00000  Uiso   1.00
H351   H     0.78711   0.81756   0.63217   0.00000  Uiso   1.00
H352   H     0.95814   0.68607   0.05311   0.00000  Uiso   1.00
H353   H     0.81351   0.54488   0.91856   0.00000  Uiso   1.00
H354   H     0.69818   0.55823   0.94726   0.00000  Uiso   1.00
H355   H     0.83349   0.55927   0.80647   0.00000  Uiso   1.00
H356   H     0.91459   0.49692   0.00609   0.00000  Uiso   1.00
H357   H     0.56129   0.60494   0.97246   0.00000  Uiso   1.00
H358   H     0.84662   0.60712   0.67562   0.00000  Uiso   1.00
H359   H     0.01765   0.47563   0.09656   0.00000  Uiso   1.00
O360   O     0.45441   0.72339   0.96867   0.00000  Uiso   1.00
O361   O     0.82875   0.72624   0.57924   0.00000  Uiso   1.00
O362   O     0.05314   0.55373   0.13150   0.00000  Uiso   1.00
N363   N     0.53162   0.76402   0.93531   0.00000  Uiso   1.00
N364   N     0.79837   0.76606   0.65778   0.00000  Uiso   1.00
N365   N     0.95829   0.64313   0.05131   0.00000  Uiso   1.00
N366   N     0.56364   0.65078   0.95869   0.00000  Uiso   1.00
N367   N     0.83039   0.65282   0.68116   0.00000  Uiso   1.00
N368   N     0.99031   0.52989   0.07469   0.00000  Uiso   1.00
C369   C     0.52815   0.30077   0.27117   0.00000  Uiso   1.00
C370   C     0.59070   0.25460   0.32426   0.00000  Uiso   1.00
C371   C     0.59660   0.26331   0.37863   0.00000  Uiso   1.00
C372   C     0.65801   0.21553   0.42150   0.00000  Uiso   1.00
C373   C     0.74699   0.15211   0.50564   0.00000  Uiso   1.00
C374   C     0.50891   0.24845   0.26361   0.00000  Uiso   1.00
C375   C     0.44603   0.25198   0.26698   0.00000  Uiso   1.00
C376   C     0.43860   0.19902   0.25879   0.00000  Uiso   1.00
C377   C     0.40057   0.12608   0.24874   0.00000  Uiso   1.00
C378   C     0.55238   0.33049   0.21156   0.00000  Uiso   1.00
C379   C     0.52604   0.40301   0.17116   0.00000  Uiso   1.00
C380   C     0.55520   0.41913   0.11914   0.00000  Uiso   1.00
C381   C     0.58467   0.47357   0.02828   0.00000  Uiso   1.00
C382   C     0.62673   0.20044   0.25062   0.00000  Uiso   1.00
C383   C     0.64425   0.20011   0.31309   0.00000  Uiso   1.00
C384   C     0.70567   0.15231   0.35589   0.00000  Uiso   1.00
C385   C     0.71166   0.16094   0.41032   0.00000  Uiso   1.00
C386   C     0.56245   0.19396   0.25245   0.00000  Uiso   1.00
C387   C     0.55511   0.14098   0.24425   0.00000  Uiso   1.00
C388   C     0.49224   0.14443   0.24761   0.00000  Uiso   1.00
C389   C     0.60593   0.27600   0.20040   0.00000  Uiso   1.00
C390   C     0.63512   0.29201   0.14843   0.00000  Uiso   1.00
C391   C     0.60884   0.36454   0.10796   0.00000  Uiso   1.00
H392   H     0.48645   0.34319   0.27986   0.00000  Uiso   1.00
H393   H     0.55514   0.30548   0.38725   0.00000  Uiso   1.00
H394   H     0.40460   0.29416   0.27562   0.00000  Uiso   1.00
H395   H     0.48461   0.44516   0.17982   0.00000  Uiso   1.00
H396   H     0.65490   0.23962   0.50141   0.00000  Uiso   1.00
H397   H     0.33747   0.21577   0.26600   0.00000  Uiso   1.00
H398   H     0.50617   0.53419   0.06398   0.00000  Uiso   1.00
H399   H     0.66842   0.15802   0.24192   0.00000  Uiso   1.00
H400   H     0.74710   0.11015   0.34724   0.00000  Uiso   1.00
H401   H     0.59655   0.09883   0.23560   0.00000  Uiso   1.00
H402   H     0.67656   0.24983   0.13980   0.00000  Uiso   1.00
H403   H     0.81070   0.08108   0.46893   0.00000  Uiso   1.00
H404   H     0.49327   0.05723   0.23352   0.00000  Uiso   1.00
H405   H     0.66197   0.37565   0.03150   0.00000  Uiso   1.00
O406   O     0.78127   0.13219   0.55514   0.00000  Uiso   1.00
O407   O     0.36481   0.10090   0.24628   0.00000  Uiso   1.00
O408   O     0.58614   0.51866   0.98124   0.00000  Uiso   1.00
N409   N     0.68078   0.20889   0.47930   0.00000  Uiso   1.00
N410   N     0.38400   0.18658   0.25922   0.00000  Uiso   1.00
N411   N     0.54171   0.48428   0.07034   0.00000  Uiso   1.00
N412   N     0.76461   0.12358   0.46183   0.00000  Uiso   1.00
N413   N     0.46784   0.10127   0.24174   0.00000  Uiso   1.00
N414   N     0.62554   0.39897   0.05287   0.00000  Uiso   1.00
C415   C     0.03723   0.72646   0.38304   0.00000  Uiso   1.00
C416   C     0.11158   0.70410   0.40163   0.00000  Uiso   1.00
C417   C     0.13507   0.74754   0.40845   0.00000  Uiso   1.00
C418   C     0.20498   0.71706   0.42574   0.00000  Uiso   1.00
C419   C     0.31363   0.69320   0.45304   0.00000  Uiso   1.00
C420   C     0.03232   0.71350   0.32494   0.00000  Uiso   1.00
C421   C     0.98915   0.76485   0.26729   0.00000  Uiso   1.00
C422   C     0.99233   0.74226   0.22002   0.00000  Uiso   1.00
C423   C     0.97787   0.73299   0.12827   0.00000  Uiso   1.00
C424   C     0.02426   0.67173   0.43528   0.00000  Uiso   1.00
C425   C     0.97430   0.68797   0.47039   0.00000  Uiso   1.00
C426   C     0.97069   0.63022   0.51601   0.00000  Uiso   1.00
C427   C     0.94372   0.55610   0.59557   0.00000  Uiso   1.00
C428   C     0.11962   0.59505   0.40161   0.00000  Uiso   1.00
C429   C     0.15633   0.63272   0.41171   0.00000  Uiso   1.00
C430   C     0.22623   0.60216   0.42900   0.00000  Uiso   1.00
C431   C     0.24982   0.64555   0.43585   0.00000  Uiso   1.00
C432   C     0.07707   0.64212   0.33502   0.00000  Uiso   1.00
C433   C     0.08031   0.61946   0.28783   0.00000  Uiso   1.00
C434   C     0.03716   0.67076   0.23012   0.00000  Uiso   1.00
C435   C     0.06901   0.60036   0.44536   0.00000  Uiso   1.00
C436   C     0.06547   0.54258   0.49093   0.00000  Uiso   1.00
C437   C     0.01552   0.55871   0.52611   0.00000  Uiso   1.00
H438   H     0.00239   0.78203   0.37519   0.00000  Uiso   1.00
H439   H     0.10042   0.80278   0.40064   0.00000  Uiso   1.00
H440   H     0.95452   0.82007   0.25950   0.00000  Uiso   1.00
H441   H     0.93968   0.74321   0.46257   0.00000  Uiso   1.00
H442   H     0.22885   0.79432   0.43328   0.00000  Uiso   1.00
H443   H     0.92119   0.83078   0.13568   0.00000  Uiso   1.00
H444   H     0.88990   0.66869   0.56390   0.00000  Uiso   1.00
H445   H     0.15447   0.53948   0.40946   0.00000  Uiso   1.00
H446   H     0.26085   0.54692   0.43680   0.00000  Uiso   1.00
H447   H     0.11494   0.56422   0.29565   0.00000  Uiso   1.00
H448   H     0.10011   0.48735   0.49873   0.00000  Uiso   1.00
H449   H     0.35906   0.58666   0.46263   0.00000  Uiso   1.00
H450   H     0.05139   0.62311   0.16503   0.00000  Uiso   1.00
H451   H     0.02010   0.46102   0.59324   0.00000  Uiso   1.00
O452   O     0.36119   0.69977   0.46530   0.00000  Uiso   1.00
O453   O     0.95754   0.74760   0.07487   0.00000  Uiso   1.00
O454   O     0.91649   0.53494   0.63667   0.00000  Uiso   1.00
N455   N     0.24489   0.74442   0.43645   0.00000  Uiso   1.00
N456   N     0.95725   0.77851   0.15821   0.00000  Uiso   1.00
N457   N     0.92799   0.62697   0.55854   0.00000  Uiso   1.00
N458   N     0.31496   0.63268   0.45224   0.00000  Uiso   1.00
N459   N     0.02732   0.66677   0.17400   0.00000  Uiso   1.00
N460   N     0.99805   0.51523   0.57433   0.00000  Uiso   1.00
C461   C     0.66223   0.27516   0.76627   0.00000  Uiso   1.00
C462   C     0.64267   0.22856   0.82001   0.00000  Uiso   1.00
C463   C     0.62836   0.23691   0.87469   0.00000  Uiso   1.00
C464   C     0.61150   0.18876   0.91816   0.00000  Uiso   1.00
C465   C     0.58154   0.12468   0.00327   0.00000  Uiso   1.00
C466   C     0.73033   0.22325   0.75772   0.00000  Uiso   1.00
C467   C     0.78971   0.22714   0.76004   0.00000  Uiso   1.00
C468   C     0.84665   0.17452   0.75106   0.00000  Uiso   1.00
C469   C     0.95275   0.10221   0.73943   0.00000  Uiso   1.00
C470   C     0.61064   0.30489   0.70733   0.00000  Uiso   1.00
C471   C     0.56939   0.37743   0.66727   0.00000  Uiso   1.00
C472   C     0.52556   0.39355   0.61586   0.00000  Uiso   1.00
C473   C     0.44582   0.44802   0.52599   0.00000  Uiso   1.00
C474   C     0.65776   0.17481   0.74621   0.00000  Uiso   1.00
C475   C     0.64025   0.17406   0.80911   0.00000  Uiso   1.00
C476   C     0.62341   0.12589   0.85250   0.00000  Uiso   1.00
C477   C     0.60907   0.13416   0.90724   0.00000  Uiso   1.00
C478   C     0.72791   0.16874   0.74683   0.00000  Uiso   1.00
C479   C     0.78476   0.11611   0.73784   0.00000  Uiso   1.00
C480   C     0.84421   0.11991   0.74014   0.00000  Uiso   1.00
C481   C     0.60821   0.25039   0.69644   0.00000  Uiso   1.00
C482   C     0.56444   0.26640   0.64507   0.00000  Uiso   1.00
C483   C     0.52313   0.33895   0.60494   0.00000  Uiso   1.00
H484   H     0.66413   0.31759   0.77475   0.00000  Uiso   1.00
H485   H     0.63025   0.27910   0.88311   0.00000  Uiso   1.00
H486   H     0.79157   0.26933   0.76846   0.00000  Uiso   1.00
H487   H     0.57128   0.41960   0.67571   0.00000  Uiso   1.00
H488   H     0.59164   0.21236   0.99845   0.00000  Uiso   1.00
H489   H     0.93180   0.19177   0.75669   0.00000  Uiso   1.00
H490   H     0.46727   0.50865   0.56111   0.00000  Uiso   1.00
H491   H     0.65587   0.13237   0.73772   0.00000  Uiso   1.00
H492   H     0.62153   0.08371   0.84405   0.00000  Uiso   1.00
H493   H     0.78286   0.07394   0.72941   0.00000  Uiso   1.00
H494   H     0.56257   0.22421   0.63666   0.00000  Uiso   1.00
H495   H     0.58457   0.05378   0.96675   0.00000  Uiso   1.00
H496   H     0.92473   0.03319   0.72499   0.00000  Uiso   1.00
H497   H     0.46020   0.35007   0.52941   0.00000  Uiso   1.00
O498   O     0.56569   0.10438   0.05323   0.00000  Uiso   1.00
O499   O     0.01196   0.07739   0.73603   0.00000  Uiso   1.00
O500   O     0.40251   0.49312   0.47943   0.00000  Uiso   1.00
N501   N     0.59467   0.18172   0.97639   0.00000  Uiso   1.00
N502   N     0.91270   0.16247   0.75037   0.00000  Uiso   1.00
N503   N     0.47842   0.45872   0.56751   0.00000  Uiso   1.00
N504   N     0.59087   0.09639   0.95934   0.00000  Uiso   1.00
N505   N     0.90890   0.07714   0.73331   0.00000  Uiso   1.00
N506   N     0.47462   0.37339   0.55045   0.00000  Uiso   1.00
C507   C     0.23479   0.14471   0.94415   0.00000  Uiso   1.00
C508   C     0.22121   0.21543   0.88996   0.00000  Uiso   1.00
C509   C     0.16373   0.28237   0.87350   0.00000  Uiso   1.00
C510   C     0.16092   0.34051   0.82242   0.00000  Uiso   1.00
C511   C     0.13178   0.45162   0.74333   0.00000  Uiso   1.00
C512   C     0.24710   0.09229   0.91521   0.00000  Uiso   1.00
C513   C     0.21139   0.05569   0.91998   0.00000  Uiso   1.00
C514   C     0.23039   0.01016   0.89016   0.00000  Uiso   1.00
C515   C     0.24148   0.93006   0.85032   0.00000  Uiso   1.00
C516   C     0.30270   0.11559   0.98518   0.00000  Uiso   1.00
C517   C     0.31375   0.09854   0.04878   0.00000  Uiso   1.00
C518   C     0.37956   0.07261   0.07787   0.00000  Uiso   1.00
C519   C     0.47697   0.02867   0.14665   0.00000  Uiso   1.00
C520   C     0.33203   0.12893   0.88272   0.00000  Uiso   1.00
C521   C     0.27403   0.20686   0.85660   0.00000  Uiso   1.00
C522   C     0.27131   0.26491   0.80553   0.00000  Uiso   1.00
C523   C     0.21383   0.33192   0.78899   0.00000  Uiso   1.00
C524   C     0.29991   0.08372   0.88185   0.00000  Uiso   1.00
C525   C     0.31897   0.03823   0.85202   0.00000  Uiso   1.00
C526   C     0.28330   0.00157   0.85673   0.00000  Uiso   1.00
C527   C     0.35552   0.10701   0.95181   0.00000  Uiso   1.00
C528   C     0.42133   0.08109   0.98081   0.00000  Uiso   1.00
C529   C     0.43247   0.06402   0.04444   0.00000  Uiso   1.00
H530   H     0.19367   0.15138   0.97013   0.00000  Uiso   1.00
H531   H     0.12286   0.28898   0.89933   0.00000  Uiso   1.00
H532   H     0.17052   0.06233   0.94581   0.00000  Uiso   1.00
H533   H     0.27286   0.10518   0.07458   0.00000  Uiso   1.00
H534   H     0.06763   0.43775   0.80610   0.00000  Uiso   1.00
H535   H     0.16815   0.95983   0.90413   0.00000  Uiso   1.00
H536   H     0.38395   0.05019   0.17568   0.00000  Uiso   1.00
H537   H     0.37315   0.12225   0.85674   0.00000  Uiso   1.00
H538   H     0.31219   0.25826   0.77972   0.00000  Uiso   1.00
H539   H     0.35985   0.03161   0.82620   0.00000  Uiso   1.00
H540   H     0.46219   0.07446   0.95497   0.00000  Uiso   1.00
H541   H     0.22130   0.41282   0.70902   0.00000  Uiso   1.00
H542   H     0.32182   0.93489   0.80706   0.00000  Uiso   1.00
H543   H     0.53761   0.02526   0.07860   0.00000  Uiso   1.00
O544   O     0.10111   0.51527   0.70893   0.00000  Uiso   1.00
O545   O     0.23300   0.88825   0.83755   0.00000  Uiso   1.00
O546   O     0.51611   0.00681   0.19380   0.00000  Uiso   1.00
N547   N     0.11217   0.41322   0.79383   0.00000  Uiso   1.00
N548   N     0.20614   0.96640   0.88548   0.00000  Uiso   1.00
N549   N     0.40790   0.05086   0.13935   0.00000  Uiso   1.00
N550   N     0.19486   0.39980   0.74160   0.00000  Uiso   1.00
N551   N     0.28883   0.95298   0.83324   0.00000  Uiso   1.00
N552   N     0.49058   0.03745   0.08711   0.00000  Uiso   1.00
