data_job_02130
_audit_creation_date              2018-12-19
_audit_creation_method            'Materials Studio'
_symmetry_space_group_name_H-M    'P1'
_symmetry_Int_Tables_number       1
_symmetry_cell_setting            triclinic
loop_
_symmetry_equiv_pos_as_xyz
  x,y,z
_cell_length_a                    23.5889
_cell_length_b                    20.0575
_cell_length_c                    20.0712
_cell_angle_alpha                 90.0000
_cell_angle_beta                  112.4590
_cell_angle_gamma                 90.0000
loop_
_atom_site_label
_atom_site_type_symbol
_atom_site_fract_x
_atom_site_fract_y
_atom_site_fract_z
_atom_site_U_iso_or_equiv
_atom_site_adp_type
_atom_site_occupancy
C1     C     0.23423   0.07873   0.42806   0.00000  Uiso   1.00
C2     C     0.29065   0.12107   0.46847   0.00000  Uiso   1.00
C3     C     0.29988   0.15874   0.52973   0.00000  Uiso   1.00
C4     C     0.35453   0.19400   0.55863   0.00000  Uiso   1.00
C5     C     0.43547   0.26012   0.62611   0.00000  Uiso   1.00
C6     C     0.20942   0.10378   0.35044   0.00000  Uiso   1.00
C7     C     0.15035   0.12691   0.31246   0.00000  Uiso   1.00
C8     C     0.13663   0.14761   0.24200   0.00000  Uiso   1.00
C9     C     0.09145   0.18684   0.12622   0.00000  Uiso   1.00
C10    C     0.25788   0.00836   0.42577   0.00000  Uiso   1.00
C11    C     0.23955   0.95126   0.45112   0.00000  Uiso   1.00
C12    C     0.26662   0.89162   0.44407   0.00000  Uiso   1.00
C13    C     0.29667   0.78271   0.44526   0.00000  Uiso   1.00
C14    C     0.31489   0.07436   0.37043   0.00000  Uiso   1.00
C15    C     0.33446   0.11869   0.43716   0.00000  Uiso   1.00
C16    C     0.38912   0.15390   0.46597   0.00000  Uiso   1.00
C17    C     0.39843   0.19162   0.52727   0.00000  Uiso   1.00
C18    C     0.25323   0.10141   0.31913   0.00000  Uiso   1.00
C19    C     0.23960   0.12207   0.24870   0.00000  Uiso   1.00
C20    C     0.18053   0.14523   0.21064   0.00000  Uiso   1.00
C21    C     0.30170   0.00599   0.39447   0.00000  Uiso   1.00
C22    C     0.32880   0.94643   0.38737   0.00000  Uiso   1.00
C23    C     0.31051   0.88924   0.41271   0.00000  Uiso   1.00
H24    H     0.20011   0.08058   0.45242   0.00000  Uiso   1.00
H25    H     0.26595   0.16057   0.55393   0.00000  Uiso   1.00
H26    H     0.11646   0.12873   0.33670   0.00000  Uiso   1.00
H27    H     0.20564   0.95311   0.47534   0.00000  Uiso   1.00
H28    H     0.35827   0.24822   0.65266   0.00000  Uiso   1.00
H29    H     0.04303   0.18107   0.19460   0.00000  Uiso   1.00
H30    H     0.23109   0.81074   0.48695   0.00000  Uiso   1.00
H31    H     0.34900   0.07252   0.34605   0.00000  Uiso   1.00
H32    H     0.42302   0.15206   0.44174   0.00000  Uiso   1.00
H33    H     0.27351   0.12023   0.22450   0.00000  Uiso   1.00
H34    H     0.36270   0.94461   0.36314   0.00000  Uiso   1.00
H35    H     0.48574   0.24132   0.56160   0.00000  Uiso   1.00
H36    H     0.17050   0.17417   0.10353   0.00000  Uiso   1.00
H37    H     0.35857   0.80384   0.39588   0.00000  Uiso   1.00
O38    O     0.46800   0.29726   0.67198   0.00000  Uiso   1.00
O39    O     0.05442   0.20915   0.07101   0.00000  Uiso   1.00
O40    O     0.30115   0.72329   0.45457   0.00000  Uiso   1.00
N41    N     0.37812   0.23567   0.61811   0.00000  Uiso   1.00
N42    N     0.08339   0.17290   0.18985   0.00000  Uiso   1.00
N43    N     0.25920   0.82667   0.46316   0.00000  Uiso   1.00
N44    N     0.44671   0.23195   0.56911   0.00000  Uiso   1.00
N45    N     0.15198   0.16919   0.14085   0.00000  Uiso   1.00
N46    N     0.32780   0.82296   0.41416   0.00000  Uiso   1.00
C47    C     0.73423   0.57873   0.42806   0.00000  Uiso   1.00
C48    C     0.79065   0.62107   0.46847   0.00000  Uiso   1.00
C49    C     0.79988   0.65874   0.52973   0.00000  Uiso   1.00
C50    C     0.85453   0.69400   0.55863   0.00000  Uiso   1.00
C51    C     0.93547   0.76012   0.62611   0.00000  Uiso   1.00
C52    C     0.70942   0.60378   0.35044   0.00000  Uiso   1.00
C53    C     0.65035   0.62691   0.31246   0.00000  Uiso   1.00
C54    C     0.63663   0.64761   0.24200   0.00000  Uiso   1.00
C55    C     0.59145   0.68684   0.12622   0.00000  Uiso   1.00
C56    C     0.75788   0.50836   0.42577   0.00000  Uiso   1.00
C57    C     0.73955   0.45126   0.45112   0.00000  Uiso   1.00
C58    C     0.76662   0.39162   0.44407   0.00000  Uiso   1.00
C59    C     0.79667   0.28271   0.44526   0.00000  Uiso   1.00
C60    C     0.81489   0.57436   0.37043   0.00000  Uiso   1.00
C61    C     0.83446   0.61869   0.43716   0.00000  Uiso   1.00
C62    C     0.88912   0.65390   0.46597   0.00000  Uiso   1.00
C63    C     0.89843   0.69162   0.52727   0.00000  Uiso   1.00
C64    C     0.75323   0.60141   0.31913   0.00000  Uiso   1.00
C65    C     0.73960   0.62207   0.24870   0.00000  Uiso   1.00
C66    C     0.68053   0.64523   0.21064   0.00000  Uiso   1.00
C67    C     0.80170   0.50599   0.39447   0.00000  Uiso   1.00
C68    C     0.82880   0.44643   0.38737   0.00000  Uiso   1.00
C69    C     0.81051   0.38924   0.41271   0.00000  Uiso   1.00
H70    H     0.70011   0.58058   0.45242   0.00000  Uiso   1.00
H71    H     0.76595   0.66057   0.55393   0.00000  Uiso   1.00
H72    H     0.61646   0.62873   0.33670   0.00000  Uiso   1.00
H73    H     0.70564   0.45311   0.47534   0.00000  Uiso   1.00
H74    H     0.85827   0.74822   0.65266   0.00000  Uiso   1.00
H75    H     0.54303   0.68107   0.19460   0.00000  Uiso   1.00
H76    H     0.73109   0.31074   0.48695   0.00000  Uiso   1.00
H77    H     0.84900   0.57252   0.34605   0.00000  Uiso   1.00
H78    H     0.92302   0.65206   0.44174   0.00000  Uiso   1.00
H79    H     0.77351   0.62023   0.22450   0.00000  Uiso   1.00
H80    H     0.86270   0.44461   0.36314   0.00000  Uiso   1.00
H81    H     0.98574   0.74132   0.56160   0.00000  Uiso   1.00
H82    H     0.67050   0.67417   0.10353   0.00000  Uiso   1.00
H83    H     0.85857   0.30384   0.39588   0.00000  Uiso   1.00
O84    O     0.96800   0.79726   0.67198   0.00000  Uiso   1.00
O85    O     0.55442   0.70915   0.07101   0.00000  Uiso   1.00
O86    O     0.80115   0.22329   0.45457   0.00000  Uiso   1.00
N87    N     0.87812   0.73567   0.61811   0.00000  Uiso   1.00
N88    N     0.58339   0.67290   0.18985   0.00000  Uiso   1.00
N89    N     0.75920   0.32667   0.46316   0.00000  Uiso   1.00
N90    N     0.94671   0.73195   0.56911   0.00000  Uiso   1.00
N91    N     0.65198   0.66919   0.14085   0.00000  Uiso   1.00
N92    N     0.82780   0.32296   0.41416   0.00000  Uiso   1.00
C93    C     0.76577   0.07873   0.07194   0.00000  Uiso   1.00
C94    C     0.70935   0.12107   0.03153   0.00000  Uiso   1.00
C95    C     0.70012   0.15874   0.97027   0.00000  Uiso   1.00
C96    C     0.64547   0.19400   0.94137   0.00000  Uiso   1.00
C97    C     0.56453   0.26012   0.87389   0.00000  Uiso   1.00
C98    C     0.79058   0.10378   0.14956   0.00000  Uiso   1.00
C99    C     0.84965   0.12691   0.18754   0.00000  Uiso   1.00
C100   C     0.86337   0.14761   0.25800   0.00000  Uiso   1.00
C101   C     0.90855   0.18684   0.37378   0.00000  Uiso   1.00
C102   C     0.74212   0.00836   0.07423   0.00000  Uiso   1.00
C103   C     0.76045   0.95126   0.04888   0.00000  Uiso   1.00
C104   C     0.73338   0.89162   0.05593   0.00000  Uiso   1.00
C105   C     0.70333   0.78271   0.05474   0.00000  Uiso   1.00
C106   C     0.68511   0.07436   0.12957   0.00000  Uiso   1.00
C107   C     0.66554   0.11869   0.06284   0.00000  Uiso   1.00
C108   C     0.61088   0.15390   0.03403   0.00000  Uiso   1.00
C109   C     0.60157   0.19162   0.97273   0.00000  Uiso   1.00
C110   C     0.74677   0.10141   0.18087   0.00000  Uiso   1.00
C111   C     0.76040   0.12207   0.25130   0.00000  Uiso   1.00
C112   C     0.81947   0.14523   0.28936   0.00000  Uiso   1.00
C113   C     0.69830   0.00599   0.10553   0.00000  Uiso   1.00
C114   C     0.67120   0.94643   0.11263   0.00000  Uiso   1.00
C115   C     0.68949   0.88924   0.08729   0.00000  Uiso   1.00
H116   H     0.79989   0.08058   0.04758   0.00000  Uiso   1.00
H117   H     0.73405   0.16057   0.94607   0.00000  Uiso   1.00
H118   H     0.88354   0.12873   0.16330   0.00000  Uiso   1.00
H119   H     0.79436   0.95311   0.02466   0.00000  Uiso   1.00
H120   H     0.64173   0.24822   0.84734   0.00000  Uiso   1.00
H121   H     0.95697   0.18107   0.30540   0.00000  Uiso   1.00
H122   H     0.76891   0.81074   0.01305   0.00000  Uiso   1.00
H123   H     0.65100   0.07252   0.15395   0.00000  Uiso   1.00
H124   H     0.57698   0.15206   0.05826   0.00000  Uiso   1.00
H125   H     0.72649   0.12023   0.27550   0.00000  Uiso   1.00
H126   H     0.63730   0.94461   0.13686   0.00000  Uiso   1.00
H127   H     0.51426   0.24132   0.93840   0.00000  Uiso   1.00
H128   H     0.82950   0.17417   0.39647   0.00000  Uiso   1.00
H129   H     0.64143   0.80384   0.10412   0.00000  Uiso   1.00
O130   O     0.53200   0.29726   0.82802   0.00000  Uiso   1.00
O131   O     0.94558   0.20915   0.42899   0.00000  Uiso   1.00
O132   O     0.69885   0.72329   0.04543   0.00000  Uiso   1.00
N133   N     0.62188   0.23567   0.88189   0.00000  Uiso   1.00
N134   N     0.91661   0.17290   0.31015   0.00000  Uiso   1.00
N135   N     0.74080   0.82667   0.03684   0.00000  Uiso   1.00
N136   N     0.55329   0.23195   0.93089   0.00000  Uiso   1.00
N137   N     0.84802   0.16919   0.35915   0.00000  Uiso   1.00
N138   N     0.67220   0.82296   0.08584   0.00000  Uiso   1.00
C139   C     0.26577   0.57873   0.07194   0.00000  Uiso   1.00
C140   C     0.20935   0.62107   0.03153   0.00000  Uiso   1.00
C141   C     0.20012   0.65874   0.97027   0.00000  Uiso   1.00
C142   C     0.14547   0.69400   0.94137   0.00000  Uiso   1.00
C143   C     0.06453   0.76012   0.87389   0.00000  Uiso   1.00
C144   C     0.29058   0.60378   0.14956   0.00000  Uiso   1.00
C145   C     0.34965   0.62691   0.18754   0.00000  Uiso   1.00
C146   C     0.36337   0.64761   0.25800   0.00000  Uiso   1.00
C147   C     0.40855   0.68684   0.37378   0.00000  Uiso   1.00
C148   C     0.24212   0.50836   0.07423   0.00000  Uiso   1.00
C149   C     0.26045   0.45126   0.04888   0.00000  Uiso   1.00
C150   C     0.23338   0.39162   0.05593   0.00000  Uiso   1.00
C151   C     0.20333   0.28271   0.05474   0.00000  Uiso   1.00
C152   C     0.18511   0.57436   0.12957   0.00000  Uiso   1.00
C153   C     0.16554   0.61869   0.06284   0.00000  Uiso   1.00
C154   C     0.11088   0.65390   0.03403   0.00000  Uiso   1.00
C155   C     0.10157   0.69162   0.97273   0.00000  Uiso   1.00
C156   C     0.24677   0.60141   0.18087   0.00000  Uiso   1.00
C157   C     0.26040   0.62207   0.25130   0.00000  Uiso   1.00
C158   C     0.31947   0.64523   0.28936   0.00000  Uiso   1.00
C159   C     0.19830   0.50599   0.10553   0.00000  Uiso   1.00
C160   C     0.17120   0.44643   0.11263   0.00000  Uiso   1.00
C161   C     0.18949   0.38924   0.08729   0.00000  Uiso   1.00
H162   H     0.29989   0.58058   0.04758   0.00000  Uiso   1.00
H163   H     0.23405   0.66057   0.94607   0.00000  Uiso   1.00
H164   H     0.38354   0.62873   0.16330   0.00000  Uiso   1.00
H165   H     0.29436   0.45311   0.02466   0.00000  Uiso   1.00
H166   H     0.14173   0.74822   0.84734   0.00000  Uiso   1.00
H167   H     0.45697   0.68107   0.30540   0.00000  Uiso   1.00
H168   H     0.26891   0.31074   0.01305   0.00000  Uiso   1.00
H169   H     0.15100   0.57252   0.15395   0.00000  Uiso   1.00
H170   H     0.07698   0.65206   0.05826   0.00000  Uiso   1.00
H171   H     0.22649   0.62023   0.27550   0.00000  Uiso   1.00
H172   H     0.13730   0.44461   0.13686   0.00000  Uiso   1.00
H173   H     0.01426   0.74132   0.93840   0.00000  Uiso   1.00
H174   H     0.32950   0.67417   0.39647   0.00000  Uiso   1.00
H175   H     0.14143   0.30384   0.10412   0.00000  Uiso   1.00
O176   O     0.03200   0.79726   0.82802   0.00000  Uiso   1.00
O177   O     0.44558   0.70915   0.42899   0.00000  Uiso   1.00
O178   O     0.19885   0.22329   0.04543   0.00000  Uiso   1.00
N179   N     0.12188   0.73567   0.88189   0.00000  Uiso   1.00
N180   N     0.41661   0.67290   0.31015   0.00000  Uiso   1.00
N181   N     0.24080   0.32667   0.03684   0.00000  Uiso   1.00
N182   N     0.05329   0.73195   0.93089   0.00000  Uiso   1.00
N183   N     0.34802   0.66919   0.35915   0.00000  Uiso   1.00
N184   N     0.17220   0.32296   0.08584   0.00000  Uiso   1.00
C185   C     0.76577   0.92127   0.57194   0.00000  Uiso   1.00
C186   C     0.70935   0.87893   0.53153   0.00000  Uiso   1.00
C187   C     0.70012   0.84126   0.47027   0.00000  Uiso   1.00
C188   C     0.64547   0.80600   0.44137   0.00000  Uiso   1.00
C189   C     0.56453   0.73988   0.37389   0.00000  Uiso   1.00
C190   C     0.79058   0.89622   0.64956   0.00000  Uiso   1.00
C191   C     0.84965   0.87309   0.68754   0.00000  Uiso   1.00
C192   C     0.86337   0.85239   0.75800   0.00000  Uiso   1.00
C193   C     0.90855   0.81316   0.87378   0.00000  Uiso   1.00
C194   C     0.74212   0.99164   0.57423   0.00000  Uiso   1.00
C195   C     0.76045   0.04874   0.54888   0.00000  Uiso   1.00
C196   C     0.73338   0.10838   0.55593   0.00000  Uiso   1.00
C197   C     0.70333   0.21729   0.55474   0.00000  Uiso   1.00
C198   C     0.68511   0.92564   0.62957   0.00000  Uiso   1.00
C199   C     0.66554   0.88131   0.56284   0.00000  Uiso   1.00
C200   C     0.61088   0.84610   0.53403   0.00000  Uiso   1.00
C201   C     0.60157   0.80838   0.47273   0.00000  Uiso   1.00
C202   C     0.74677   0.89859   0.68087   0.00000  Uiso   1.00
C203   C     0.76040   0.87793   0.75130   0.00000  Uiso   1.00
C204   C     0.81947   0.85477   0.78936   0.00000  Uiso   1.00
C205   C     0.69830   0.99401   0.60553   0.00000  Uiso   1.00
C206   C     0.67120   0.05357   0.61263   0.00000  Uiso   1.00
C207   C     0.68949   0.11076   0.58729   0.00000  Uiso   1.00
H208   H     0.79989   0.91942   0.54758   0.00000  Uiso   1.00
H209   H     0.73405   0.83943   0.44607   0.00000  Uiso   1.00
H210   H     0.88354   0.87127   0.66330   0.00000  Uiso   1.00
H211   H     0.79436   0.04689   0.52466   0.00000  Uiso   1.00
H212   H     0.64173   0.75178   0.34734   0.00000  Uiso   1.00
H213   H     0.95697   0.81893   0.80540   0.00000  Uiso   1.00
H214   H     0.76891   0.18926   0.51305   0.00000  Uiso   1.00
H215   H     0.65100   0.92748   0.65395   0.00000  Uiso   1.00
H216   H     0.57698   0.84794   0.55826   0.00000  Uiso   1.00
H217   H     0.72649   0.87977   0.77550   0.00000  Uiso   1.00
H218   H     0.63730   0.05539   0.63686   0.00000  Uiso   1.00
H219   H     0.51426   0.75868   0.43840   0.00000  Uiso   1.00
H220   H     0.82950   0.82583   0.89647   0.00000  Uiso   1.00
H221   H     0.64143   0.19616   0.60412   0.00000  Uiso   1.00
O222   O     0.53200   0.70274   0.32802   0.00000  Uiso   1.00
O223   O     0.94558   0.79085   0.92899   0.00000  Uiso   1.00
O224   O     0.69885   0.27671   0.54543   0.00000  Uiso   1.00
N225   N     0.62188   0.76433   0.38189   0.00000  Uiso   1.00
N226   N     0.91661   0.82710   0.81015   0.00000  Uiso   1.00
N227   N     0.74080   0.17333   0.53684   0.00000  Uiso   1.00
N228   N     0.55329   0.76805   0.43089   0.00000  Uiso   1.00
N229   N     0.84802   0.83081   0.85915   0.00000  Uiso   1.00
N230   N     0.67220   0.17704   0.58584   0.00000  Uiso   1.00
C231   C     0.26577   0.42127   0.57194   0.00000  Uiso   1.00
C232   C     0.20935   0.37893   0.53153   0.00000  Uiso   1.00
C233   C     0.20012   0.34126   0.47027   0.00000  Uiso   1.00
C234   C     0.14547   0.30600   0.44137   0.00000  Uiso   1.00
C235   C     0.06453   0.23988   0.37389   0.00000  Uiso   1.00
C236   C     0.29058   0.39622   0.64956   0.00000  Uiso   1.00
C237   C     0.34965   0.37309   0.68754   0.00000  Uiso   1.00
C238   C     0.36337   0.35239   0.75800   0.00000  Uiso   1.00
C239   C     0.40855   0.31316   0.87378   0.00000  Uiso   1.00
C240   C     0.24212   0.49164   0.57423   0.00000  Uiso   1.00
C241   C     0.26045   0.54874   0.54888   0.00000  Uiso   1.00
C242   C     0.23338   0.60838   0.55593   0.00000  Uiso   1.00
C243   C     0.20333   0.71729   0.55474   0.00000  Uiso   1.00
C244   C     0.18511   0.42564   0.62957   0.00000  Uiso   1.00
C245   C     0.16554   0.38131   0.56284   0.00000  Uiso   1.00
C246   C     0.11088   0.34610   0.53403   0.00000  Uiso   1.00
C247   C     0.10157   0.30838   0.47273   0.00000  Uiso   1.00
C248   C     0.24677   0.39859   0.68087   0.00000  Uiso   1.00
C249   C     0.26040   0.37793   0.75130   0.00000  Uiso   1.00
C250   C     0.31947   0.35477   0.78936   0.00000  Uiso   1.00
C251   C     0.19830   0.49401   0.60553   0.00000  Uiso   1.00
C252   C     0.17120   0.55357   0.61263   0.00000  Uiso   1.00
C253   C     0.18949   0.61076   0.58729   0.00000  Uiso   1.00
H254   H     0.29989   0.41942   0.54758   0.00000  Uiso   1.00
H255   H     0.23405   0.33943   0.44607   0.00000  Uiso   1.00
H256   H     0.38354   0.37127   0.66330   0.00000  Uiso   1.00
H257   H     0.29436   0.54689   0.52466   0.00000  Uiso   1.00
H258   H     0.14173   0.25178   0.34734   0.00000  Uiso   1.00
H259   H     0.45697   0.31893   0.80540   0.00000  Uiso   1.00
H260   H     0.26891   0.68926   0.51305   0.00000  Uiso   1.00
H261   H     0.15100   0.42748   0.65395   0.00000  Uiso   1.00
H262   H     0.07698   0.34794   0.55826   0.00000  Uiso   1.00
H263   H     0.22649   0.37977   0.77550   0.00000  Uiso   1.00
H264   H     0.13730   0.55539   0.63686   0.00000  Uiso   1.00
H265   H     0.01426   0.25868   0.43840   0.00000  Uiso   1.00
H266   H     0.32950   0.32583   0.89647   0.00000  Uiso   1.00
H267   H     0.14143   0.69616   0.60412   0.00000  Uiso   1.00
O268   O     0.03200   0.20274   0.32802   0.00000  Uiso   1.00
O269   O     0.44558   0.29085   0.92899   0.00000  Uiso   1.00
O270   O     0.19885   0.77671   0.54543   0.00000  Uiso   1.00
N271   N     0.12188   0.26433   0.38189   0.00000  Uiso   1.00
N272   N     0.41661   0.32710   0.81015   0.00000  Uiso   1.00
N273   N     0.24080   0.67333   0.53684   0.00000  Uiso   1.00
N274   N     0.05329   0.26805   0.43089   0.00000  Uiso   1.00
N275   N     0.34802   0.33081   0.85915   0.00000  Uiso   1.00
N276   N     0.17220   0.67704   0.58584   0.00000  Uiso   1.00
C277   C     0.23423   0.92127   0.92806   0.00000  Uiso   1.00
C278   C     0.29065   0.87893   0.96847   0.00000  Uiso   1.00
C279   C     0.29988   0.84126   0.02973   0.00000  Uiso   1.00
C280   C     0.35453   0.80600   0.05863   0.00000  Uiso   1.00
C281   C     0.43547   0.73988   0.12611   0.00000  Uiso   1.00
C282   C     0.20942   0.89622   0.85044   0.00000  Uiso   1.00
C283   C     0.15035   0.87309   0.81246   0.00000  Uiso   1.00
C284   C     0.13663   0.85239   0.74200   0.00000  Uiso   1.00
C285   C     0.09145   0.81316   0.62622   0.00000  Uiso   1.00
C286   C     0.25788   0.99164   0.92577   0.00000  Uiso   1.00
C287   C     0.23955   0.04874   0.95112   0.00000  Uiso   1.00
C288   C     0.26662   0.10838   0.94407   0.00000  Uiso   1.00
C289   C     0.29667   0.21729   0.94526   0.00000  Uiso   1.00
C290   C     0.31489   0.92564   0.87043   0.00000  Uiso   1.00
C291   C     0.33446   0.88131   0.93716   0.00000  Uiso   1.00
C292   C     0.38912   0.84610   0.96597   0.00000  Uiso   1.00
C293   C     0.39843   0.80838   0.02727   0.00000  Uiso   1.00
C294   C     0.25323   0.89859   0.81913   0.00000  Uiso   1.00
C295   C     0.23960   0.87793   0.74870   0.00000  Uiso   1.00
C296   C     0.18053   0.85477   0.71064   0.00000  Uiso   1.00
C297   C     0.30170   0.99401   0.89447   0.00000  Uiso   1.00
C298   C     0.32880   0.05357   0.88737   0.00000  Uiso   1.00
C299   C     0.31051   0.11076   0.91271   0.00000  Uiso   1.00
H300   H     0.20011   0.91942   0.95242   0.00000  Uiso   1.00
H301   H     0.26595   0.83943   0.05393   0.00000  Uiso   1.00
H302   H     0.11646   0.87127   0.83670   0.00000  Uiso   1.00
H303   H     0.20564   0.04689   0.97534   0.00000  Uiso   1.00
H304   H     0.35827   0.75178   0.15266   0.00000  Uiso   1.00
H305   H     0.04303   0.81893   0.69460   0.00000  Uiso   1.00
H306   H     0.23109   0.18926   0.98695   0.00000  Uiso   1.00
H307   H     0.34900   0.92748   0.84605   0.00000  Uiso   1.00
H308   H     0.42302   0.84794   0.94174   0.00000  Uiso   1.00
H309   H     0.27351   0.87977   0.72450   0.00000  Uiso   1.00
H310   H     0.36270   0.05539   0.86314   0.00000  Uiso   1.00
H311   H     0.48574   0.75868   0.06160   0.00000  Uiso   1.00
H312   H     0.17050   0.82583   0.60353   0.00000  Uiso   1.00
H313   H     0.35857   0.19616   0.89588   0.00000  Uiso   1.00
O314   O     0.46800   0.70274   0.17198   0.00000  Uiso   1.00
O315   O     0.05442   0.79085   0.57101   0.00000  Uiso   1.00
O316   O     0.30115   0.27671   0.95457   0.00000  Uiso   1.00
N317   N     0.37812   0.76433   0.11811   0.00000  Uiso   1.00
N318   N     0.08339   0.82710   0.68985   0.00000  Uiso   1.00
N319   N     0.25920   0.17333   0.96316   0.00000  Uiso   1.00
N320   N     0.44671   0.76805   0.06911   0.00000  Uiso   1.00
N321   N     0.15198   0.83081   0.64085   0.00000  Uiso   1.00
N322   N     0.32780   0.17704   0.91416   0.00000  Uiso   1.00
C323   C     0.73423   0.42127   0.92806   0.00000  Uiso   1.00
C324   C     0.79065   0.37893   0.96847   0.00000  Uiso   1.00
C325   C     0.79988   0.34126   0.02973   0.00000  Uiso   1.00
C326   C     0.85453   0.30600   0.05863   0.00000  Uiso   1.00
C327   C     0.93547   0.23988   0.12611   0.00000  Uiso   1.00
C328   C     0.70942   0.39622   0.85044   0.00000  Uiso   1.00
C329   C     0.65035   0.37309   0.81246   0.00000  Uiso   1.00
C330   C     0.63663   0.35239   0.74200   0.00000  Uiso   1.00
C331   C     0.59145   0.31316   0.62622   0.00000  Uiso   1.00
C332   C     0.75788   0.49164   0.92577   0.00000  Uiso   1.00
C333   C     0.73955   0.54874   0.95112   0.00000  Uiso   1.00
C334   C     0.76662   0.60838   0.94407   0.00000  Uiso   1.00
C335   C     0.79667   0.71729   0.94526   0.00000  Uiso   1.00
C336   C     0.81489   0.42564   0.87043   0.00000  Uiso   1.00
C337   C     0.83446   0.38131   0.93716   0.00000  Uiso   1.00
C338   C     0.88912   0.34610   0.96597   0.00000  Uiso   1.00
C339   C     0.89843   0.30838   0.02727   0.00000  Uiso   1.00
C340   C     0.75323   0.39859   0.81913   0.00000  Uiso   1.00
C341   C     0.73960   0.37793   0.74870   0.00000  Uiso   1.00
C342   C     0.68053   0.35477   0.71064   0.00000  Uiso   1.00
C343   C     0.80170   0.49401   0.89447   0.00000  Uiso   1.00
C344   C     0.82880   0.55357   0.88737   0.00000  Uiso   1.00
C345   C     0.81051   0.61076   0.91271   0.00000  Uiso   1.00
H346   H     0.70011   0.41942   0.95242   0.00000  Uiso   1.00
H347   H     0.76595   0.33943   0.05393   0.00000  Uiso   1.00
H348   H     0.61646   0.37127   0.83670   0.00000  Uiso   1.00
H349   H     0.70564   0.54689   0.97534   0.00000  Uiso   1.00
H350   H     0.85827   0.25178   0.15266   0.00000  Uiso   1.00
H351   H     0.54303   0.31893   0.69460   0.00000  Uiso   1.00
H352   H     0.73109   0.68926   0.98695   0.00000  Uiso   1.00
H353   H     0.84900   0.42748   0.84605   0.00000  Uiso   1.00
H354   H     0.92302   0.34794   0.94174   0.00000  Uiso   1.00
H355   H     0.77351   0.37977   0.72450   0.00000  Uiso   1.00
H356   H     0.86270   0.55539   0.86314   0.00000  Uiso   1.00
H357   H     0.98574   0.25868   0.06160   0.00000  Uiso   1.00
H358   H     0.67050   0.32583   0.60353   0.00000  Uiso   1.00
H359   H     0.85857   0.69616   0.89588   0.00000  Uiso   1.00
O360   O     0.96800   0.20274   0.17198   0.00000  Uiso   1.00
O361   O     0.55442   0.29085   0.57101   0.00000  Uiso   1.00
O362   O     0.80115   0.77671   0.95457   0.00000  Uiso   1.00
N363   N     0.87812   0.26433   0.11811   0.00000  Uiso   1.00
N364   N     0.58339   0.32710   0.68985   0.00000  Uiso   1.00
N365   N     0.75920   0.67333   0.96316   0.00000  Uiso   1.00
N366   N     0.94671   0.26805   0.06911   0.00000  Uiso   1.00
N367   N     0.65198   0.33081   0.64085   0.00000  Uiso   1.00
N368   N     0.82780   0.67704   0.91416   0.00000  Uiso   1.00
