data_job_01590
_audit_creation_date              2018-12-19
_audit_creation_method            'Materials Studio'
_symmetry_space_group_name_H-M    'P1'
_symmetry_Int_Tables_number       1
_symmetry_cell_setting            triclinic
loop_
_symmetry_equiv_pos_as_xyz
  x,y,z
_cell_length_a                    27.3088
_cell_length_b                    22.9765
_cell_length_c                    26.3810
_cell_angle_alpha                 90.0000
_cell_angle_beta                  128.1037
_cell_angle_gamma                 90.0000
loop_
_atom_site_label
_atom_site_type_symbol
_atom_site_fract_x
_atom_site_fract_y
_atom_site_fract_z
_atom_site_U_iso_or_equiv
_atom_site_adp_type
_atom_site_occupancy
C1     C     0.35417   0.89364   0.40902   0.00000  Uiso   1.00
C2     C     0.32003   0.95105   0.39543   0.00000  Uiso   1.00
C3     C     0.32803   0.00135   0.37217   0.00000  Uiso   1.00
C4     C     0.29241   0.04930   0.36296   0.00000  Uiso   1.00
C5     C     0.24581   0.13881   0.33982   0.00000  Uiso   1.00
C6     C     0.38556   0.87928   0.47939   0.00000  Uiso   1.00
C7     C     0.44866   0.86923   0.52670   0.00000  Uiso   1.00
C8     C     0.46820   0.85676   0.58816   0.00000  Uiso   1.00
C9     C     0.52334   0.83479   0.69534   0.00000  Uiso   1.00
C10    C     0.30383   0.84765   0.36941   0.00000  Uiso   1.00
C11    C     0.29822   0.81100   0.32426   0.00000  Uiso   1.00
C12    C     0.24896   0.77190   0.29313   0.00000  Uiso   1.00
C13    C     0.17721   0.70084   0.22956   0.00000  Uiso   1.00
C14    C     0.27668   0.88935   0.43404   0.00000  Uiso   1.00
C15    C     0.27794   0.94872   0.40903   0.00000  Uiso   1.00
C16    C     0.24229   0.99661   0.39984   0.00000  Uiso   1.00
C17    C     0.25024   0.04697   0.37657   0.00000  Uiso   1.00
C18    C     0.34347   0.87695   0.49298   0.00000  Uiso   1.00
C19    C     0.36292   0.86449   0.55438   0.00000  Uiso   1.00
C20    C     0.42603   0.85442   0.60177   0.00000  Uiso   1.00
C21    C     0.26174   0.84533   0.38299   0.00000  Uiso   1.00
C22    C     0.21248   0.80627   0.35194   0.00000  Uiso   1.00
C23    C     0.20680   0.76956   0.30675   0.00000  Uiso   1.00
H24    H     0.38694   0.89545   0.39845   0.00000  Uiso   1.00
H25    H     0.36061   0.00313   0.36166   0.00000  Uiso   1.00
H26    H     0.48122   0.87102   0.51617   0.00000  Uiso   1.00
H27    H     0.33080   0.81282   0.31376   0.00000  Uiso   1.00
H28    H     0.31287   0.12150   0.32689   0.00000  Uiso   1.00
H29    H     0.56718   0.84293   0.65267   0.00000  Uiso   1.00
H30    H     0.25000   0.72018   0.22585   0.00000  Uiso   1.00
H31    H     0.24391   0.88754   0.44462   0.00000  Uiso   1.00
H32    H     0.20972   0.99479   0.41037   0.00000  Uiso   1.00
H33    H     0.33033   0.86269   0.56487   0.00000  Uiso   1.00
H34    H     0.17992   0.80448   0.36246   0.00000  Uiso   1.00
H35    H     0.19041   0.11474   0.36642   0.00000  Uiso   1.00
H36    H     0.44471   0.83615   0.69220   0.00000  Uiso   1.00
H37    H     0.12753   0.71341   0.26538   0.00000  Uiso   1.00
O38    O     0.23175   0.18882   0.32331   0.00000  Uiso   1.00
O39    O     0.56538   0.82333   0.75071   0.00000  Uiso   1.00
O40    O     0.14925   0.66229   0.19073   0.00000  Uiso   1.00
N41    N     0.28873   0.10519   0.34088   0.00000  Uiso   1.00
N42    N     0.52649   0.84474   0.64547   0.00000  Uiso   1.00
N43    N     0.22997   0.72997   0.24644   0.00000  Uiso   1.00
N44    N     0.22283   0.10155   0.36215   0.00000  Uiso   1.00
N45    N     0.46060   0.84110   0.66674   0.00000  Uiso   1.00
N46    N     0.16407   0.72633   0.26771   0.00000  Uiso   1.00
C47    C     0.85417   0.39364   0.40902   0.00000  Uiso   1.00
C48    C     0.82003   0.45105   0.39543   0.00000  Uiso   1.00
C49    C     0.82803   0.50135   0.37217   0.00000  Uiso   1.00
C50    C     0.79241   0.54930   0.36296   0.00000  Uiso   1.00
C51    C     0.74581   0.63881   0.33982   0.00000  Uiso   1.00
C52    C     0.88556   0.37928   0.47939   0.00000  Uiso   1.00
C53    C     0.94866   0.36923   0.52670   0.00000  Uiso   1.00
C54    C     0.96820   0.35676   0.58816   0.00000  Uiso   1.00
C55    C     0.02334   0.33479   0.69534   0.00000  Uiso   1.00
C56    C     0.80383   0.34765   0.36941   0.00000  Uiso   1.00
C57    C     0.79822   0.31100   0.32426   0.00000  Uiso   1.00
C58    C     0.74896   0.27190   0.29313   0.00000  Uiso   1.00
C59    C     0.67721   0.20084   0.22956   0.00000  Uiso   1.00
C60    C     0.77668   0.38935   0.43404   0.00000  Uiso   1.00
C61    C     0.77794   0.44872   0.40903   0.00000  Uiso   1.00
C62    C     0.74229   0.49661   0.39984   0.00000  Uiso   1.00
C63    C     0.75024   0.54697   0.37657   0.00000  Uiso   1.00
C64    C     0.84347   0.37695   0.49298   0.00000  Uiso   1.00
C65    C     0.86292   0.36449   0.55438   0.00000  Uiso   1.00
C66    C     0.92603   0.35442   0.60177   0.00000  Uiso   1.00
C67    C     0.76174   0.34533   0.38299   0.00000  Uiso   1.00
C68    C     0.71248   0.30627   0.35194   0.00000  Uiso   1.00
C69    C     0.70680   0.26956   0.30675   0.00000  Uiso   1.00
H70    H     0.88694   0.39545   0.39845   0.00000  Uiso   1.00
H71    H     0.86061   0.50313   0.36166   0.00000  Uiso   1.00
H72    H     0.98122   0.37102   0.51617   0.00000  Uiso   1.00
H73    H     0.83080   0.31282   0.31376   0.00000  Uiso   1.00
H74    H     0.81287   0.62150   0.32689   0.00000  Uiso   1.00
H75    H     0.06718   0.34293   0.65267   0.00000  Uiso   1.00
H76    H     0.75000   0.22018   0.22585   0.00000  Uiso   1.00
H77    H     0.74391   0.38754   0.44462   0.00000  Uiso   1.00
H78    H     0.70972   0.49479   0.41037   0.00000  Uiso   1.00
H79    H     0.83033   0.36269   0.56487   0.00000  Uiso   1.00
H80    H     0.67992   0.30448   0.36246   0.00000  Uiso   1.00
H81    H     0.69041   0.61474   0.36642   0.00000  Uiso   1.00
H82    H     0.94471   0.33615   0.69220   0.00000  Uiso   1.00
H83    H     0.62753   0.21341   0.26538   0.00000  Uiso   1.00
O84    O     0.73175   0.68882   0.32331   0.00000  Uiso   1.00
O85    O     0.06538   0.32333   0.75071   0.00000  Uiso   1.00
O86    O     0.64925   0.16229   0.19073   0.00000  Uiso   1.00
N87    N     0.78873   0.60519   0.34088   0.00000  Uiso   1.00
N88    N     0.02649   0.34474   0.64547   0.00000  Uiso   1.00
N89    N     0.72997   0.22997   0.24644   0.00000  Uiso   1.00
N90    N     0.72283   0.60155   0.36215   0.00000  Uiso   1.00
N91    N     0.96060   0.34110   0.66674   0.00000  Uiso   1.00
N92    N     0.66407   0.22633   0.26771   0.00000  Uiso   1.00
C93    C     0.64583   0.89364   0.09098   0.00000  Uiso   1.00
C94    C     0.67997   0.95105   0.10457   0.00000  Uiso   1.00
C95    C     0.67197   0.00135   0.12783   0.00000  Uiso   1.00
C96    C     0.70759   0.04930   0.13704   0.00000  Uiso   1.00
C97    C     0.75419   0.13881   0.16018   0.00000  Uiso   1.00
C98    C     0.61444   0.87928   0.02061   0.00000  Uiso   1.00
C99    C     0.55134   0.86923   0.97330   0.00000  Uiso   1.00
C100   C     0.53180   0.85676   0.91184   0.00000  Uiso   1.00
C101   C     0.47666   0.83479   0.80466   0.00000  Uiso   1.00
C102   C     0.69617   0.84765   0.13059   0.00000  Uiso   1.00
C103   C     0.70178   0.81100   0.17574   0.00000  Uiso   1.00
C104   C     0.75104   0.77190   0.20687   0.00000  Uiso   1.00
C105   C     0.82279   0.70084   0.27044   0.00000  Uiso   1.00
C106   C     0.72332   0.88935   0.06596   0.00000  Uiso   1.00
C107   C     0.72206   0.94872   0.09097   0.00000  Uiso   1.00
C108   C     0.75771   0.99661   0.10016   0.00000  Uiso   1.00
C109   C     0.74976   0.04697   0.12343   0.00000  Uiso   1.00
C110   C     0.65653   0.87695   0.00702   0.00000  Uiso   1.00
C111   C     0.63708   0.86449   0.94562   0.00000  Uiso   1.00
C112   C     0.57397   0.85442   0.89823   0.00000  Uiso   1.00
C113   C     0.73826   0.84533   0.11701   0.00000  Uiso   1.00
C114   C     0.78752   0.80627   0.14806   0.00000  Uiso   1.00
C115   C     0.79320   0.76956   0.19325   0.00000  Uiso   1.00
H116   H     0.61306   0.89545   0.10155   0.00000  Uiso   1.00
H117   H     0.63939   0.00313   0.13834   0.00000  Uiso   1.00
H118   H     0.51878   0.87102   0.98383   0.00000  Uiso   1.00
H119   H     0.66920   0.81282   0.18624   0.00000  Uiso   1.00
H120   H     0.68713   0.12150   0.17311   0.00000  Uiso   1.00
H121   H     0.43282   0.84293   0.84733   0.00000  Uiso   1.00
H122   H     0.75000   0.72018   0.27415   0.00000  Uiso   1.00
H123   H     0.75609   0.88754   0.05538   0.00000  Uiso   1.00
H124   H     0.79028   0.99479   0.08963   0.00000  Uiso   1.00
H125   H     0.66967   0.86269   0.93513   0.00000  Uiso   1.00
H126   H     0.82008   0.80448   0.13754   0.00000  Uiso   1.00
H127   H     0.80959   0.11474   0.13358   0.00000  Uiso   1.00
H128   H     0.55529   0.83615   0.80780   0.00000  Uiso   1.00
H129   H     0.87247   0.71341   0.23462   0.00000  Uiso   1.00
O130   O     0.76825   0.18882   0.17669   0.00000  Uiso   1.00
O131   O     0.43462   0.82333   0.74929   0.00000  Uiso   1.00
O132   O     0.85075   0.66229   0.30927   0.00000  Uiso   1.00
N133   N     0.71127   0.10519   0.15912   0.00000  Uiso   1.00
N134   N     0.47351   0.84474   0.85453   0.00000  Uiso   1.00
N135   N     0.77003   0.72997   0.25356   0.00000  Uiso   1.00
N136   N     0.77717   0.10155   0.13785   0.00000  Uiso   1.00
N137   N     0.53940   0.84110   0.83326   0.00000  Uiso   1.00
N138   N     0.83593   0.72633   0.23229   0.00000  Uiso   1.00
C139   C     0.14583   0.39364   0.09098   0.00000  Uiso   1.00
C140   C     0.17997   0.45105   0.10457   0.00000  Uiso   1.00
C141   C     0.17197   0.50135   0.12783   0.00000  Uiso   1.00
C142   C     0.20759   0.54930   0.13704   0.00000  Uiso   1.00
C143   C     0.25419   0.63881   0.16018   0.00000  Uiso   1.00
C144   C     0.11444   0.37928   0.02061   0.00000  Uiso   1.00
C145   C     0.05134   0.36923   0.97330   0.00000  Uiso   1.00
C146   C     0.03180   0.35676   0.91184   0.00000  Uiso   1.00
C147   C     0.97666   0.33479   0.80466   0.00000  Uiso   1.00
C148   C     0.19617   0.34765   0.13059   0.00000  Uiso   1.00
C149   C     0.20178   0.31100   0.17574   0.00000  Uiso   1.00
C150   C     0.25104   0.27190   0.20687   0.00000  Uiso   1.00
C151   C     0.32279   0.20084   0.27044   0.00000  Uiso   1.00
C152   C     0.22332   0.38935   0.06596   0.00000  Uiso   1.00
C153   C     0.22206   0.44872   0.09097   0.00000  Uiso   1.00
C154   C     0.25771   0.49661   0.10016   0.00000  Uiso   1.00
C155   C     0.24976   0.54697   0.12343   0.00000  Uiso   1.00
C156   C     0.15653   0.37695   0.00702   0.00000  Uiso   1.00
C157   C     0.13708   0.36449   0.94562   0.00000  Uiso   1.00
C158   C     0.07397   0.35442   0.89823   0.00000  Uiso   1.00
C159   C     0.23826   0.34533   0.11701   0.00000  Uiso   1.00
C160   C     0.28752   0.30627   0.14806   0.00000  Uiso   1.00
C161   C     0.29320   0.26956   0.19325   0.00000  Uiso   1.00
H162   H     0.11306   0.39545   0.10155   0.00000  Uiso   1.00
H163   H     0.13939   0.50313   0.13834   0.00000  Uiso   1.00
H164   H     0.01878   0.37102   0.98383   0.00000  Uiso   1.00
H165   H     0.16920   0.31282   0.18624   0.00000  Uiso   1.00
H166   H     0.18713   0.62150   0.17311   0.00000  Uiso   1.00
H167   H     0.93282   0.34293   0.84733   0.00000  Uiso   1.00
H168   H     0.25000   0.22018   0.27415   0.00000  Uiso   1.00
H169   H     0.25609   0.38754   0.05538   0.00000  Uiso   1.00
H170   H     0.29028   0.49479   0.08963   0.00000  Uiso   1.00
H171   H     0.16967   0.36269   0.93513   0.00000  Uiso   1.00
H172   H     0.32008   0.30448   0.13754   0.00000  Uiso   1.00
H173   H     0.30959   0.61474   0.13358   0.00000  Uiso   1.00
H174   H     0.05529   0.33615   0.80780   0.00000  Uiso   1.00
H175   H     0.37247   0.21341   0.23462   0.00000  Uiso   1.00
O176   O     0.26825   0.68882   0.17669   0.00000  Uiso   1.00
O177   O     0.93462   0.32333   0.74929   0.00000  Uiso   1.00
O178   O     0.35075   0.16229   0.30927   0.00000  Uiso   1.00
N179   N     0.21127   0.60519   0.15912   0.00000  Uiso   1.00
N180   N     0.97351   0.34474   0.85453   0.00000  Uiso   1.00
N181   N     0.27003   0.22997   0.25356   0.00000  Uiso   1.00
N182   N     0.27717   0.60155   0.13785   0.00000  Uiso   1.00
N183   N     0.03940   0.34110   0.83326   0.00000  Uiso   1.00
N184   N     0.33593   0.22633   0.23229   0.00000  Uiso   1.00
C185   C     0.64583   0.10636   0.59098   0.00000  Uiso   1.00
C186   C     0.67997   0.04895   0.60457   0.00000  Uiso   1.00
C187   C     0.67197   0.99865   0.62783   0.00000  Uiso   1.00
C188   C     0.70759   0.95070   0.63704   0.00000  Uiso   1.00
C189   C     0.75419   0.86119   0.66018   0.00000  Uiso   1.00
C190   C     0.61444   0.12072   0.52061   0.00000  Uiso   1.00
C191   C     0.55134   0.13077   0.47330   0.00000  Uiso   1.00
C192   C     0.53180   0.14324   0.41184   0.00000  Uiso   1.00
C193   C     0.47666   0.16521   0.30466   0.00000  Uiso   1.00
C194   C     0.69617   0.15235   0.63059   0.00000  Uiso   1.00
C195   C     0.70178   0.18900   0.67574   0.00000  Uiso   1.00
C196   C     0.75104   0.22810   0.70687   0.00000  Uiso   1.00
C197   C     0.82279   0.29916   0.77044   0.00000  Uiso   1.00
C198   C     0.72332   0.11065   0.56596   0.00000  Uiso   1.00
C199   C     0.72206   0.05128   0.59097   0.00000  Uiso   1.00
C200   C     0.75771   0.00339   0.60016   0.00000  Uiso   1.00
C201   C     0.74976   0.95303   0.62343   0.00000  Uiso   1.00
C202   C     0.65653   0.12305   0.50702   0.00000  Uiso   1.00
C203   C     0.63708   0.13551   0.44562   0.00000  Uiso   1.00
C204   C     0.57397   0.14558   0.39823   0.00000  Uiso   1.00
C205   C     0.73826   0.15467   0.61701   0.00000  Uiso   1.00
C206   C     0.78752   0.19373   0.64806   0.00000  Uiso   1.00
C207   C     0.79320   0.23044   0.69325   0.00000  Uiso   1.00
H208   H     0.61306   0.10455   0.60155   0.00000  Uiso   1.00
H209   H     0.63939   0.99687   0.63834   0.00000  Uiso   1.00
H210   H     0.51878   0.12898   0.48383   0.00000  Uiso   1.00
H211   H     0.66920   0.18718   0.68624   0.00000  Uiso   1.00
H212   H     0.68713   0.87850   0.67311   0.00000  Uiso   1.00
H213   H     0.43282   0.15707   0.34733   0.00000  Uiso   1.00
H214   H     0.75000   0.27982   0.77415   0.00000  Uiso   1.00
H215   H     0.75609   0.11246   0.55538   0.00000  Uiso   1.00
H216   H     0.79028   0.00521   0.58963   0.00000  Uiso   1.00
H217   H     0.66967   0.13731   0.43513   0.00000  Uiso   1.00
H218   H     0.82008   0.19552   0.63754   0.00000  Uiso   1.00
H219   H     0.80959   0.88526   0.63358   0.00000  Uiso   1.00
H220   H     0.55529   0.16385   0.30780   0.00000  Uiso   1.00
H221   H     0.87247   0.28659   0.73462   0.00000  Uiso   1.00
O222   O     0.76825   0.81118   0.67669   0.00000  Uiso   1.00
O223   O     0.43462   0.17667   0.24929   0.00000  Uiso   1.00
O224   O     0.85075   0.33771   0.80927   0.00000  Uiso   1.00
N225   N     0.71127   0.89481   0.65912   0.00000  Uiso   1.00
N226   N     0.47351   0.15526   0.35453   0.00000  Uiso   1.00
N227   N     0.77003   0.27003   0.75356   0.00000  Uiso   1.00
N228   N     0.77717   0.89845   0.63785   0.00000  Uiso   1.00
N229   N     0.53940   0.15890   0.33326   0.00000  Uiso   1.00
N230   N     0.83593   0.27367   0.73229   0.00000  Uiso   1.00
C231   C     0.14583   0.60636   0.59098   0.00000  Uiso   1.00
C232   C     0.17997   0.54895   0.60457   0.00000  Uiso   1.00
C233   C     0.17197   0.49865   0.62783   0.00000  Uiso   1.00
C234   C     0.20759   0.45070   0.63704   0.00000  Uiso   1.00
C235   C     0.25419   0.36119   0.66018   0.00000  Uiso   1.00
C236   C     0.11444   0.62072   0.52061   0.00000  Uiso   1.00
C237   C     0.05134   0.63077   0.47330   0.00000  Uiso   1.00
C238   C     0.03180   0.64324   0.41184   0.00000  Uiso   1.00
C239   C     0.97666   0.66521   0.30466   0.00000  Uiso   1.00
C240   C     0.19617   0.65235   0.63059   0.00000  Uiso   1.00
C241   C     0.20178   0.68900   0.67574   0.00000  Uiso   1.00
C242   C     0.25104   0.72810   0.70687   0.00000  Uiso   1.00
C243   C     0.32279   0.79916   0.77044   0.00000  Uiso   1.00
C244   C     0.22332   0.61065   0.56596   0.00000  Uiso   1.00
C245   C     0.22206   0.55128   0.59097   0.00000  Uiso   1.00
C246   C     0.25771   0.50339   0.60016   0.00000  Uiso   1.00
C247   C     0.24976   0.45303   0.62343   0.00000  Uiso   1.00
C248   C     0.15653   0.62305   0.50702   0.00000  Uiso   1.00
C249   C     0.13708   0.63551   0.44562   0.00000  Uiso   1.00
C250   C     0.07397   0.64558   0.39823   0.00000  Uiso   1.00
C251   C     0.23826   0.65467   0.61701   0.00000  Uiso   1.00
C252   C     0.28752   0.69373   0.64806   0.00000  Uiso   1.00
C253   C     0.29320   0.73044   0.69325   0.00000  Uiso   1.00
H254   H     0.11306   0.60455   0.60155   0.00000  Uiso   1.00
H255   H     0.13939   0.49687   0.63834   0.00000  Uiso   1.00
H256   H     0.01878   0.62898   0.48383   0.00000  Uiso   1.00
H257   H     0.16920   0.68718   0.68624   0.00000  Uiso   1.00
H258   H     0.18713   0.37850   0.67311   0.00000  Uiso   1.00
H259   H     0.93282   0.65707   0.34733   0.00000  Uiso   1.00
H260   H     0.25000   0.77982   0.77415   0.00000  Uiso   1.00
H261   H     0.25609   0.61246   0.55538   0.00000  Uiso   1.00
H262   H     0.29028   0.50521   0.58963   0.00000  Uiso   1.00
H263   H     0.16967   0.63731   0.43513   0.00000  Uiso   1.00
H264   H     0.32008   0.69552   0.63754   0.00000  Uiso   1.00
H265   H     0.30959   0.38526   0.63358   0.00000  Uiso   1.00
H266   H     0.05529   0.66385   0.30780   0.00000  Uiso   1.00
H267   H     0.37247   0.78659   0.73462   0.00000  Uiso   1.00
O268   O     0.26825   0.31118   0.67669   0.00000  Uiso   1.00
O269   O     0.93462   0.67667   0.24929   0.00000  Uiso   1.00
O270   O     0.35075   0.83771   0.80927   0.00000  Uiso   1.00
N271   N     0.21127   0.39481   0.65912   0.00000  Uiso   1.00
N272   N     0.97351   0.65526   0.35453   0.00000  Uiso   1.00
N273   N     0.27003   0.77003   0.75356   0.00000  Uiso   1.00
N274   N     0.27717   0.39845   0.63785   0.00000  Uiso   1.00
N275   N     0.03940   0.65890   0.33326   0.00000  Uiso   1.00
N276   N     0.33593   0.77367   0.73229   0.00000  Uiso   1.00
C277   C     0.35417   0.10636   0.90902   0.00000  Uiso   1.00
C278   C     0.32003   0.04895   0.89543   0.00000  Uiso   1.00
C279   C     0.32803   0.99865   0.87217   0.00000  Uiso   1.00
C280   C     0.29241   0.95070   0.86296   0.00000  Uiso   1.00
C281   C     0.24581   0.86119   0.83982   0.00000  Uiso   1.00
C282   C     0.38556   0.12072   0.97939   0.00000  Uiso   1.00
C283   C     0.44866   0.13077   0.02670   0.00000  Uiso   1.00
C284   C     0.46820   0.14324   0.08816   0.00000  Uiso   1.00
C285   C     0.52334   0.16521   0.19534   0.00000  Uiso   1.00
C286   C     0.30383   0.15235   0.86941   0.00000  Uiso   1.00
C287   C     0.29822   0.18900   0.82426   0.00000  Uiso   1.00
C288   C     0.24896   0.22810   0.79313   0.00000  Uiso   1.00
C289   C     0.17721   0.29916   0.72956   0.00000  Uiso   1.00
C290   C     0.27668   0.11065   0.93404   0.00000  Uiso   1.00
C291   C     0.27794   0.05128   0.90903   0.00000  Uiso   1.00
C292   C     0.24229   0.00339   0.89984   0.00000  Uiso   1.00
C293   C     0.25024   0.95303   0.87657   0.00000  Uiso   1.00
C294   C     0.34347   0.12305   0.99298   0.00000  Uiso   1.00
C295   C     0.36292   0.13551   0.05438   0.00000  Uiso   1.00
C296   C     0.42603   0.14558   0.10177   0.00000  Uiso   1.00
C297   C     0.26174   0.15467   0.88299   0.00000  Uiso   1.00
C298   C     0.21248   0.19373   0.85194   0.00000  Uiso   1.00
C299   C     0.20680   0.23044   0.80675   0.00000  Uiso   1.00
H300   H     0.38694   0.10455   0.89845   0.00000  Uiso   1.00
H301   H     0.36061   0.99687   0.86166   0.00000  Uiso   1.00
H302   H     0.48122   0.12898   0.01617   0.00000  Uiso   1.00
H303   H     0.33080   0.18718   0.81376   0.00000  Uiso   1.00
H304   H     0.31287   0.87850   0.82689   0.00000  Uiso   1.00
H305   H     0.56718   0.15707   0.15267   0.00000  Uiso   1.00
H306   H     0.25000   0.27982   0.72585   0.00000  Uiso   1.00
H307   H     0.24391   0.11246   0.94462   0.00000  Uiso   1.00
H308   H     0.20972   0.00521   0.91037   0.00000  Uiso   1.00
H309   H     0.33033   0.13731   0.06487   0.00000  Uiso   1.00
H310   H     0.17992   0.19552   0.86246   0.00000  Uiso   1.00
H311   H     0.19041   0.88526   0.86642   0.00000  Uiso   1.00
H312   H     0.44471   0.16385   0.19220   0.00000  Uiso   1.00
H313   H     0.12753   0.28659   0.76538   0.00000  Uiso   1.00
O314   O     0.23175   0.81118   0.82331   0.00000  Uiso   1.00
O315   O     0.56538   0.17667   0.25071   0.00000  Uiso   1.00
O316   O     0.14925   0.33771   0.69073   0.00000  Uiso   1.00
N317   N     0.28873   0.89481   0.84088   0.00000  Uiso   1.00
N318   N     0.52649   0.15526   0.14547   0.00000  Uiso   1.00
N319   N     0.22997   0.27003   0.74644   0.00000  Uiso   1.00
N320   N     0.22283   0.89845   0.86215   0.00000  Uiso   1.00
N321   N     0.46060   0.15890   0.16674   0.00000  Uiso   1.00
N322   N     0.16407   0.27367   0.76771   0.00000  Uiso   1.00
C323   C     0.85417   0.60636   0.90902   0.00000  Uiso   1.00
C324   C     0.82003   0.54895   0.89543   0.00000  Uiso   1.00
C325   C     0.82803   0.49865   0.87217   0.00000  Uiso   1.00
C326   C     0.79241   0.45070   0.86296   0.00000  Uiso   1.00
C327   C     0.74581   0.36119   0.83982   0.00000  Uiso   1.00
C328   C     0.88556   0.62072   0.97939   0.00000  Uiso   1.00
C329   C     0.94866   0.63077   0.02670   0.00000  Uiso   1.00
C330   C     0.96820   0.64324   0.08816   0.00000  Uiso   1.00
C331   C     0.02334   0.66521   0.19534   0.00000  Uiso   1.00
C332   C     0.80383   0.65235   0.86941   0.00000  Uiso   1.00
C333   C     0.79822   0.68900   0.82426   0.00000  Uiso   1.00
C334   C     0.74896   0.72810   0.79313   0.00000  Uiso   1.00
C335   C     0.67721   0.79916   0.72956   0.00000  Uiso   1.00
C336   C     0.77668   0.61065   0.93404   0.00000  Uiso   1.00
C337   C     0.77794   0.55128   0.90903   0.00000  Uiso   1.00
C338   C     0.74229   0.50339   0.89984   0.00000  Uiso   1.00
C339   C     0.75024   0.45303   0.87657   0.00000  Uiso   1.00
C340   C     0.84347   0.62305   0.99298   0.00000  Uiso   1.00
C341   C     0.86292   0.63551   0.05438   0.00000  Uiso   1.00
C342   C     0.92603   0.64558   0.10177   0.00000  Uiso   1.00
C343   C     0.76174   0.65467   0.88299   0.00000  Uiso   1.00
C344   C     0.71248   0.69373   0.85194   0.00000  Uiso   1.00
C345   C     0.70680   0.73044   0.80675   0.00000  Uiso   1.00
H346   H     0.88694   0.60455   0.89845   0.00000  Uiso   1.00
H347   H     0.86061   0.49687   0.86166   0.00000  Uiso   1.00
H348   H     0.98122   0.62898   0.01617   0.00000  Uiso   1.00
H349   H     0.83080   0.68718   0.81376   0.00000  Uiso   1.00
H350   H     0.81287   0.37850   0.82689   0.00000  Uiso   1.00
H351   H     0.06718   0.65707   0.15267   0.00000  Uiso   1.00
H352   H     0.75000   0.77982   0.72585   0.00000  Uiso   1.00
H353   H     0.74391   0.61246   0.94462   0.00000  Uiso   1.00
H354   H     0.70972   0.50521   0.91037   0.00000  Uiso   1.00
H355   H     0.83033   0.63731   0.06487   0.00000  Uiso   1.00
H356   H     0.67992   0.69552   0.86246   0.00000  Uiso   1.00
H357   H     0.69041   0.38526   0.86642   0.00000  Uiso   1.00
H358   H     0.94471   0.66385   0.19220   0.00000  Uiso   1.00
H359   H     0.62753   0.78659   0.76538   0.00000  Uiso   1.00
O360   O     0.73175   0.31118   0.82331   0.00000  Uiso   1.00
O361   O     0.06538   0.67667   0.25071   0.00000  Uiso   1.00
O362   O     0.64925   0.83771   0.69073   0.00000  Uiso   1.00
N363   N     0.78873   0.39481   0.84088   0.00000  Uiso   1.00
N364   N     0.02649   0.65526   0.14547   0.00000  Uiso   1.00
N365   N     0.72997   0.77003   0.74644   0.00000  Uiso   1.00
N366   N     0.72283   0.39845   0.86215   0.00000  Uiso   1.00
N367   N     0.96060   0.65890   0.16674   0.00000  Uiso   1.00
N368   N     0.66407   0.77367   0.76771   0.00000  Uiso   1.00
