data_job_06794
_audit_creation_date              2018-12-19
_audit_creation_method            'Materials Studio'
_symmetry_space_group_name_H-M    'P1'
_symmetry_Int_Tables_number       1
_symmetry_cell_setting            triclinic
loop_
_symmetry_equiv_pos_as_xyz
  x,y,z
_cell_length_a                    19.7402
_cell_length_b                    23.1930
_cell_length_c                    19.3677
_cell_angle_alpha                 93.5522
_cell_angle_beta                  101.8160
_cell_angle_gamma                 106.5740
loop_
_atom_site_label
_atom_site_type_symbol
_atom_site_fract_x
_atom_site_fract_y
_atom_site_fract_z
_atom_site_U_iso_or_equiv
_atom_site_adp_type
_atom_site_occupancy
C1     C     0.97699   0.83075   0.37731   0.00000  Uiso   1.00
C2     C     0.95314   0.76159   0.36795   0.00000  Uiso   1.00
C3     C     0.99908   0.72575   0.37493   0.00000  Uiso   1.00
C4     C     0.96663   0.66334   0.36426   0.00000  Uiso   1.00
C5     C     0.94110   0.55985   0.35229   0.00000  Uiso   1.00
C6     C     0.94062   0.84866   0.30819   0.00000  Uiso   1.00
C7     C     0.97605   0.88602   0.26493   0.00000  Uiso   1.00
C8     C     0.93305   0.89692   0.20395   0.00000  Uiso   1.00
C9     C     0.88809   0.92863   0.09923   0.00000  Uiso   1.00
C10    C     0.94173   0.84973   0.43428   0.00000  Uiso   1.00
C11    C     0.97808   0.88802   0.49703   0.00000  Uiso   1.00
C12    C     0.93601   0.89983   0.54220   0.00000  Uiso   1.00
C13    C     0.89276   0.93322   0.63325   0.00000  Uiso   1.00
C14    C     0.83765   0.78367   0.34594   0.00000  Uiso   1.00
C15    C     0.87745   0.73602   0.35091   0.00000  Uiso   1.00
C16    C     0.84491   0.67365   0.34023   0.00000  Uiso   1.00
C17    C     0.89080   0.63772   0.34719   0.00000  Uiso   1.00
C18    C     0.86494   0.82308   0.29115   0.00000  Uiso   1.00
C19    C     0.82188   0.83393   0.23022   0.00000  Uiso   1.00
C20    C     0.85723   0.87130   0.18688   0.00000  Uiso   1.00
C21    C     0.86604   0.82416   0.41724   0.00000  Uiso   1.00
C22    C     0.82391   0.83592   0.46232   0.00000  Uiso   1.00
C23    C     0.86018   0.87421   0.52513   0.00000  Uiso   1.00
H24    H     0.03592   0.85066   0.39057   0.00000  Uiso   1.00
H25    H     0.05765   0.74556   0.38811   0.00000  Uiso   1.00
H26    H     0.03462   0.90581   0.27813   0.00000  Uiso   1.00
H27    H     0.03665   0.90780   0.51020   0.00000  Uiso   1.00
H28    H     0.04837   0.61775   0.37785   0.00000  Uiso   1.00
H29    H     0.99981   0.95567   0.14596   0.00000  Uiso   1.00
H30    H     0.00408   0.95987   0.63532   0.00000  Uiso   1.00
H31    H     0.77872   0.76376   0.33267   0.00000  Uiso   1.00
H32    H     0.78634   0.65388   0.32704   0.00000  Uiso   1.00
H33    H     0.76331   0.81413   0.21706   0.00000  Uiso   1.00
H34    H     0.76534   0.81612   0.44912   0.00000  Uiso   1.00
H35    H     0.82817   0.54334   0.32828   0.00000  Uiso   1.00
H36    H     0.77960   0.88126   0.09639   0.00000  Uiso   1.00
H37    H     0.78387   0.88546   0.58574   0.00000  Uiso   1.00
O38    O     0.94793   0.50983   0.35038   0.00000  Uiso   1.00
O39    O     0.88421   0.95318   0.04616   0.00000  Uiso   1.00
O40    O     0.88981   0.95869   0.68818   0.00000  Uiso   1.00
N41    N     0.99550   0.61531   0.36697   0.00000  Uiso   1.00
N42    N     0.95010   0.93124   0.15016   0.00000  Uiso   1.00
N43    N     0.95409   0.93519   0.60766   0.00000  Uiso   1.00
N44    N     0.87701   0.57528   0.34030   0.00000  Uiso   1.00
N45    N     0.83160   0.89120   0.12349   0.00000  Uiso   1.00
N46    N     0.83560   0.89515   0.58098   0.00000  Uiso   1.00
C47    C     0.52414   0.91074   0.81839   0.00000  Uiso   1.00
C48    C     0.48033   0.89633   0.74146   0.00000  Uiso   1.00
C49    C     0.42488   0.91956   0.71249   0.00000  Uiso   1.00
C50    C     0.39148   0.90079   0.64103   0.00000  Uiso   1.00
C51    C     0.32018   0.88456   0.52781   0.00000  Uiso   1.00
C52    C     0.51537   0.84989   0.84700   0.00000  Uiso   1.00
C53    C     0.48939   0.83408   0.90677   0.00000  Uiso   1.00
C54    C     0.48549   0.77623   0.92416   0.00000  Uiso   1.00
C55    C     0.46864   0.68791   0.97483   0.00000  Uiso   1.00
C56    C     0.60365   0.93484   0.81505   0.00000  Uiso   1.00
C57    C     0.65190   0.99045   0.84798   0.00000  Uiso   1.00
C58    C     0.72233   0.00411   0.83849   0.00000  Uiso   1.00
C59    C     0.84254   0.04769   0.83955   0.00000  Uiso   1.00
C60    C     0.56343   0.83609   0.74300   0.00000  Uiso   1.00
C61    C     0.50167   0.85578   0.70051   0.00000  Uiso   1.00
C62    C     0.46835   0.83697   0.62908   0.00000  Uiso   1.00
C63    C     0.41286   0.86018   0.60000   0.00000  Uiso   1.00
C64    C     0.53671   0.80934   0.80605   0.00000  Uiso   1.00
C65    C     0.53286   0.75150   0.82336   0.00000  Uiso   1.00
C66    C     0.50687   0.73561   0.88314   0.00000  Uiso   1.00
C67    C     0.62499   0.89429   0.77410   0.00000  Uiso   1.00
C68    C     0.69536   0.90786   0.76456   0.00000  Uiso   1.00
C69    C     0.74371   0.96349   0.79746   0.00000  Uiso   1.00
H70    H     0.50753   0.94230   0.85028   0.00000  Uiso   1.00
H71    H     0.40838   0.95094   0.74420   0.00000  Uiso   1.00
H72    H     0.47288   0.86547   0.93846   0.00000  Uiso   1.00
H73    H     0.63536   0.02182   0.87967   0.00000  Uiso   1.00
H74    H     0.30784   0.94261   0.60854   0.00000  Uiso   1.00
H75    H     0.44388   0.76241   0.01815   0.00000  Uiso   1.00
H76    H     0.78650   0.09210   0.89419   0.00000  Uiso   1.00
H77    H     0.58005   0.80452   0.71112   0.00000  Uiso   1.00
H78    H     0.48487   0.80560   0.59740   0.00000  Uiso   1.00
H79    H     0.54938   0.72013   0.79166   0.00000  Uiso   1.00
H80    H     0.71186   0.87648   0.73287   0.00000  Uiso   1.00
H81    H     0.36993   0.82465   0.48939   0.00000  Uiso   1.00
H82    H     0.50597   0.64445   0.89901   0.00000  Uiso   1.00
H83    H     0.84859   0.97413   0.77504   0.00000  Uiso   1.00
O84    O     0.27495   0.88680   0.47668   0.00000  Uiso   1.00
O85    O     0.45344   0.65040   0.01408   0.00000  Uiso   1.00
O86    O     0.90295   0.08294   0.85144   0.00000  Uiso   1.00
N87    N     0.33553   0.91471   0.59610   0.00000  Uiso   1.00
N88    N     0.46270   0.74623   0.97906   0.00000  Uiso   1.00
N89    N     0.78303   0.05445   0.86318   0.00000  Uiso   1.00
N90    N     0.36893   0.85123   0.53199   0.00000  Uiso   1.00
N91    N     0.49611   0.68276   0.91495   0.00000  Uiso   1.00
N92    N     0.81644   0.99098   0.79906   0.00000  Uiso   1.00
C93    C     0.74814   0.59541   0.76178   0.00000  Uiso   1.00
C94    C     0.69774   0.56493   0.69017   0.00000  Uiso   1.00
C95    C     0.62399   0.55820   0.67014   0.00000  Uiso   1.00
C96    C     0.58745   0.52898   0.60232   0.00000  Uiso   1.00
C97    C     0.50371   0.48492   0.49814   0.00000  Uiso   1.00
C98    C     0.78252   0.54844   0.79188   0.00000  Uiso   1.00
C99    C     0.78005   0.52786   0.85737   0.00000  Uiso   1.00
C100   C     0.81488   0.48477   0.87517   0.00000  Uiso   1.00
C101   C     0.86281   0.41515   0.92892   0.00000  Uiso   1.00
C102   C     0.80955   0.64550   0.74518   0.00000  Uiso   1.00
C103   C     0.82983   0.70653   0.77142   0.00000  Uiso   1.00
C104   C     0.88742   0.74516   0.74991   0.00000  Uiso   1.00
C105   C     0.97732   0.82624   0.73116   0.00000  Uiso   1.00
C106   C     0.81438   0.55550   0.67696   0.00000  Uiso   1.00
C107   C     0.73373   0.54325   0.64410   0.00000  Uiso   1.00
C108   C     0.69728   0.51404   0.57629   0.00000  Uiso   1.00
C109   C     0.62349   0.50726   0.55616   0.00000  Uiso   1.00
C110   C     0.81850   0.52676   0.74581   0.00000  Uiso   1.00
C111   C     0.85334   0.48370   0.76352   0.00000  Uiso   1.00
C112   C     0.85093   0.46305   0.82902   0.00000  Uiso   1.00
C113   C     0.84553   0.62383   0.69911   0.00000  Uiso   1.00
C114   C     0.90311   0.66237   0.67757   0.00000  Uiso   1.00
C115   C     0.92347   0.72344   0.70376   0.00000  Uiso   1.00
H116   H     0.72013   0.61229   0.79766   0.00000  Uiso   1.00
H117   H     0.59617   0.57498   0.70581   0.00000  Uiso   1.00
H118   H     0.75221   0.54465   0.89301   0.00000  Uiso   1.00
H119   H     0.80197   0.72329   0.80707   0.00000  Uiso   1.00
H120   H     0.47459   0.52403   0.58368   0.00000  Uiso   1.00
H121   H     0.80364   0.46010   0.97841   0.00000  Uiso   1.00
H122   H     0.90857   0.83680   0.79719   0.00000  Uiso   1.00
H123   H     0.84240   0.53862   0.64109   0.00000  Uiso   1.00
H124   H     0.72514   0.49727   0.54065   0.00000  Uiso   1.00
H125   H     0.88118   0.46694   0.72786   0.00000  Uiso   1.00
H126   H     0.93094   0.64558   0.64191   0.00000  Uiso   1.00
H127   H     0.57927   0.46095   0.44963   0.00000  Uiso   1.00
H128   H     0.90832   0.39702   0.84437   0.00000  Uiso   1.00
H129   H     0.01325   0.77372   0.66314   0.00000  Uiso   1.00
O130   O     0.44759   0.46660   0.45341   0.00000  Uiso   1.00
O131   O     0.87930   0.38273   0.97130   0.00000  Uiso   1.00
O132   O     0.01696   0.87695   0.73353   0.00000  Uiso   1.00
N133   N     0.51532   0.51487   0.56591   0.00000  Uiso   1.00
N134   N     0.82295   0.45509   0.93496   0.00000  Uiso   1.00
N135   N     0.92107   0.80727   0.76554   0.00000  Uiso   1.00
N136   N     0.57165   0.48093   0.49378   0.00000  Uiso   1.00
N137   N     0.87928   0.42115   0.86283   0.00000  Uiso   1.00
N138   N     0.97739   0.77333   0.69341   0.00000  Uiso   1.00
C139   C     0.57926   0.89486   0.41666   0.00000  Uiso   1.00
C140   C     0.58364   0.88492   0.33933   0.00000  Uiso   1.00
C141   C     0.64703   0.89800   0.31488   0.00000  Uiso   1.00
C142   C     0.63953   0.88561   0.24217   0.00000  Uiso   1.00
C143   C     0.65675   0.87390   0.12918   0.00000  Uiso   1.00
C144   C     0.53718   0.83336   0.43360   0.00000  Uiso   1.00
C145   C     0.56151   0.80310   0.48842   0.00000  Uiso   1.00
C146   C     0.51489   0.74731   0.49508   0.00000  Uiso   1.00
C147   C     0.45996   0.65557   0.52848   0.00000  Uiso   1.00
C148   C     0.53058   0.93526   0.41836   0.00000  Uiso   1.00
C149   C     0.54934   0.99066   0.46038   0.00000  Uiso   1.00
C150   C     0.49715   0.02065   0.45422   0.00000  Uiso   1.00
C151   C     0.43197   0.08711   0.46395   0.00000  Uiso   1.00
C152   C     0.45322   0.84959   0.33102   0.00000  Uiso   1.00
C153   C     0.51518   0.86033   0.29281   0.00000  Uiso   1.00
C154   C     0.50758   0.84792   0.22013   0.00000  Uiso   1.00
C155   C     0.57095   0.86098   0.19557   0.00000  Uiso   1.00
C156   C     0.46873   0.80877   0.38709   0.00000  Uiso   1.00
C157   C     0.42206   0.75302   0.39367   0.00000  Uiso   1.00
C158   C     0.44631   0.72268   0.44848   0.00000  Uiso   1.00
C159   C     0.46212   0.91067   0.37184   0.00000  Uiso   1.00
C160   C     0.40989   0.94057   0.36562   0.00000  Uiso   1.00
C161   C     0.42857   0.99601   0.40762   0.00000  Uiso   1.00
H162   H     0.63256   0.91400   0.45288   0.00000  Uiso   1.00
H163   H     0.70000   0.91703   0.35089   0.00000  Uiso   1.00
H164   H     0.61448   0.82215   0.52441   0.00000  Uiso   1.00
H165   H     0.60232   0.00967   0.49637   0.00000  Uiso   1.00
H166   H     0.74458   0.90952   0.21731   0.00000  Uiso   1.00
H167   H     0.56426   0.70947   0.58320   0.00000  Uiso   1.00
H168   H     0.53861   0.10491   0.52407   0.00000  Uiso   1.00
H169   H     0.39992   0.83044   0.29481   0.00000  Uiso   1.00
H170   H     0.45460   0.82889   0.18414   0.00000  Uiso   1.00
H171   H     0.36908   0.73400   0.35766   0.00000  Uiso   1.00
H172   H     0.35692   0.92153   0.32962   0.00000  Uiso   1.00
H173   H     0.54540   0.83798   0.08197   0.00000  Uiso   1.00
H174   H     0.36508   0.63793   0.44787   0.00000  Uiso   1.00
H175   H     0.33943   0.03337   0.38873   0.00000  Uiso   1.00
O176   O     0.68516   0.87422   0.07970   0.00000  Uiso   1.00
O177   O     0.44858   0.61176   0.55975   0.00000  Uiso   1.00
O178   O     0.41493   0.13057   0.48216   0.00000  Uiso   1.00
N179   N     0.69020   0.89291   0.20065   0.00000  Uiso   1.00
N180   N     0.52162   0.70587   0.54273   0.00000  Uiso   1.00
N181   N     0.49763   0.07556   0.48746   0.00000  Uiso   1.00
N182   N     0.58303   0.85442   0.12782   0.00000  Uiso   1.00
N183   N     0.41444   0.66737   0.46990   0.00000  Uiso   1.00
N184   N     0.39045   0.03707   0.41463   0.00000  Uiso   1.00
C185   C     0.94028   0.33404   0.35494   0.00000  Uiso   1.00
C186   C     0.94795   0.27799   0.31578   0.00000  Uiso   1.00
C187   C     0.94860   0.22442   0.34369   0.00000  Uiso   1.00
C188   C     0.95613   0.17844   0.29931   0.00000  Uiso   1.00
C189   C     0.96700   0.09027   0.24910   0.00000  Uiso   1.00
C190   C     0.87483   0.34706   0.30947   0.00000  Uiso   1.00
C191   C     0.81399   0.35155   0.33208   0.00000  Uiso   1.00
C192   C     0.75997   0.36371   0.28239   0.00000  Uiso   1.00
C193   C     0.65734   0.38281   0.22240   0.00000  Uiso   1.00
C194   C     0.00644   0.38641   0.35155   0.00000  Uiso   1.00
C195   C     0.05626   0.42401   0.40954   0.00000  Uiso   1.00
C196   C     0.11304   0.46931   0.39528   0.00000  Uiso   1.00
C197   C     0.21476   0.54951   0.40063   0.00000  Uiso   1.00
C198   C     0.95253   0.34766   0.22649   0.00000  Uiso   1.00
C199   C     0.95461   0.28539   0.24601   0.00000  Uiso   1.00
C200   C     0.96215   0.23948   0.20157   0.00000  Uiso   1.00
C201   C     0.96280   0.18584   0.22942   0.00000  Uiso   1.00
C202   C     0.88148   0.35445   0.23970   0.00000  Uiso   1.00
C203   C     0.82754   0.36661   0.18996   0.00000  Uiso   1.00
C204   C     0.76664   0.37112   0.21249   0.00000  Uiso   1.00
C205   C     0.01310   0.39380   0.28178   0.00000  Uiso   1.00
C206   C     0.06981   0.43907   0.26742   0.00000  Uiso   1.00
C207   C     0.11971   0.47672   0.32538   0.00000  Uiso   1.00
H208   H     0.93509   0.32829   0.40926   0.00000  Uiso   1.00
H209   H     0.94344   0.21871   0.39769   0.00000  Uiso   1.00
H210   H     0.80886   0.34583   0.38608   0.00000  Uiso   1.00
H211   H     0.05109   0.41827   0.46352   0.00000  Uiso   1.00
H212   H     0.95560   0.10048   0.35408   0.00000  Uiso   1.00
H213   H     0.67184   0.36854   0.32961   0.00000  Uiso   1.00
H214   H     0.18263   0.52130   0.49292   0.00000  Uiso   1.00
H215   H     0.95771   0.35342   0.17217   0.00000  Uiso   1.00
H216   H     0.96730   0.24522   0.14758   0.00000  Uiso   1.00
H217   H     0.83272   0.37234   0.13598   0.00000  Uiso   1.00
H218   H     0.07495   0.44478   0.21343   0.00000  Uiso   1.00
H219   H     0.97496   0.12199   0.15109   0.00000  Uiso   1.00
H220   H     0.69120   0.39005   0.12662   0.00000  Uiso   1.00
H221   H     0.20199   0.54281   0.28993   0.00000  Uiso   1.00
O222   O     0.97115   0.03959   0.24068   0.00000  Uiso   1.00
O223   O     0.59888   0.39129   0.20858   0.00000  Uiso   1.00
O224   O     0.26903   0.59170   0.42285   0.00000  Uiso   1.00
N225   N     0.95885   0.12039   0.30968   0.00000  Uiso   1.00
N226   N     0.69355   0.37101   0.28680   0.00000  Uiso   1.00
N227   N     0.17109   0.51383   0.43949   0.00000  Uiso   1.00
N228   N     0.96927   0.13197   0.20045   0.00000  Uiso   1.00
N229   N     0.70397   0.38258   0.17757   0.00000  Uiso   1.00
N230   N     0.18151   0.52541   0.33026   0.00000  Uiso   1.00
C231   C     0.34440   0.44387   0.81391   0.00000  Uiso   1.00
C232   C     0.26660   0.41398   0.81973   0.00000  Uiso   1.00
C233   C     0.21069   0.43993   0.80780   0.00000  Uiso   1.00
C234   C     0.14340   0.40519   0.81584   0.00000  Uiso   1.00
C235   C     0.02424   0.36767   0.82190   0.00000  Uiso   1.00
C236   C     0.35995   0.40099   0.76060   0.00000  Uiso   1.00
C237   C     0.38253   0.41603   0.69897   0.00000  Uiso   1.00
C238   C     0.39383   0.37035   0.65725   0.00000  Uiso   1.00
C239   C     0.41964   0.31269   0.57155   0.00000  Uiso   1.00
C240   C     0.39291   0.44271   0.88571   0.00000  Uiso   1.00
C241   C     0.44323   0.49284   0.92926   0.00000  Uiso   1.00
C242   C     0.48229   0.48228   0.99285   0.00000  Uiso   1.00
C243   C     0.55929   0.48941   0.10140   0.00000  Uiso   1.00
C244   C     0.32433   0.33600   0.84940   0.00000  Uiso   1.00
C245   C     0.25570   0.35538   0.83900   0.00000  Uiso   1.00
C246   C     0.18848   0.32059   0.84707   0.00000  Uiso   1.00
C247   C     0.13247   0.34649   0.83515   0.00000  Uiso   1.00
C248   C     0.34904   0.34240   0.77988   0.00000  Uiso   1.00
C249   C     0.36032   0.29669   0.73824   0.00000  Uiso   1.00
C250   C     0.38291   0.31166   0.67656   0.00000  Uiso   1.00
C251   C     0.38201   0.38412   0.90499   0.00000  Uiso   1.00
C252   C     0.42101   0.37349   0.96853   0.00000  Uiso   1.00
C253   C     0.47137   0.42359   0.01217   0.00000  Uiso   1.00
H254   H     0.35290   0.48948   0.79889   0.00000  Uiso   1.00
H255   H     0.21915   0.48527   0.79287   0.00000  Uiso   1.00
H256   H     0.39097   0.46138   0.68407   0.00000  Uiso   1.00
H257   H     0.45165   0.53817   0.91432   0.00000  Uiso   1.00
H258   H     0.06604   0.45476   0.79467   0.00000  Uiso   1.00
H259   H     0.42837   0.40439   0.56527   0.00000  Uiso   1.00
H260   H     0.55633   0.56631   0.05079   0.00000  Uiso   1.00
H261   H     0.31584   0.29038   0.86441   0.00000  Uiso   1.00
H262   H     0.18006   0.27525   0.86198   0.00000  Uiso   1.00
H263   H     0.35188   0.25136   0.75318   0.00000  Uiso   1.00
H264   H     0.41256   0.32815   0.98343   0.00000  Uiso   1.00
H265   H     0.03432   0.28430   0.85076   0.00000  Uiso   1.00
H266   H     0.39664   0.23392   0.62136   0.00000  Uiso   1.00
H267   H     0.52460   0.39585   0.10688   0.00000  Uiso   1.00
O268   O     0.96152   0.36316   0.81991   0.00000  Uiso   1.00
O269   O     0.43688   0.29707   0.51896   0.00000  Uiso   1.00
O270   O     0.60476   0.50952   0.15595   0.00000  Uiso   1.00
N271   N     0.07721   0.41673   0.80822   0.00000  Uiso   1.00
N272   N     0.41595   0.36962   0.59373   0.00000  Uiso   1.00
N273   N     0.53560   0.52101   0.04765   0.00000  Uiso   1.00
N274   N     0.06014   0.32500   0.83840   0.00000  Uiso   1.00
N275   N     0.39888   0.27790   0.62392   0.00000  Uiso   1.00
N276   N     0.51853   0.42929   0.07783   0.00000  Uiso   1.00
C277   C     0.13593   0.16365   0.63094   0.00000  Uiso   1.00
C278   C     0.16269   0.22581   0.60684   0.00000  Uiso   1.00
C279   C     0.15507   0.27929   0.63556   0.00000  Uiso   1.00
C280   C     0.18325   0.33140   0.60610   0.00000  Uiso   1.00
C281   C     0.21958   0.42814   0.57724   0.00000  Uiso   1.00
C282   C     0.20238   0.14162   0.65012   0.00000  Uiso   1.00
C283   C     0.22813   0.12431   0.71523   0.00000  Uiso   1.00
C284   C     0.28971   0.10555   0.72218   0.00000  Uiso   1.00
C285   C     0.38762   0.07154   0.76050   0.00000  Uiso   1.00
C286   C     0.08632   0.12175   0.56501   0.00000  Uiso   1.00
C287   C     0.01448   0.08771   0.55857   0.00000  Uiso   1.00
C288   C     0.97836   0.05220   0.49388   0.00000  Uiso   1.00
C289   C     0.89607   0.98734   0.40005   0.00000  Uiso   1.00
C290   C     0.19952   0.16108   0.52754   0.00000  Uiso   1.00
C291   C     0.19723   0.22441   0.55068   0.00000  Uiso   1.00
C292   C     0.22542   0.27645   0.52115   0.00000  Uiso   1.00
C293   C     0.21785   0.33000   0.54983   0.00000  Uiso   1.00
C294   C     0.23691   0.14023   0.59395   0.00000  Uiso   1.00
C295   C     0.29847   0.12147   0.60082   0.00000  Uiso   1.00
C296   C     0.32431   0.10415   0.66592   0.00000  Uiso   1.00
C297   C     0.12085   0.12035   0.50884   0.00000  Uiso   1.00
C298   C     0.08483   0.08488   0.44415   0.00000  Uiso   1.00
C299   C     0.01296   0.05080   0.43761   0.00000  Uiso   1.00
H300   H     0.10905   0.16473   0.67468   0.00000  Uiso   1.00
H301   H     0.12835   0.28036   0.67904   0.00000  Uiso   1.00
H302   H     0.20138   0.12539   0.75868   0.00000  Uiso   1.00
H303   H     0.98778   0.08881   0.60204   0.00000  Uiso   1.00
H304   H     0.16500   0.40794   0.65912   0.00000  Uiso   1.00
H305   H     0.31898   0.08117   0.82704   0.00000  Uiso   1.00
H306   H     0.86855   0.00402   0.49675   0.00000  Uiso   1.00
H307   H     0.22641   0.15999   0.48381   0.00000  Uiso   1.00
H308   H     0.25215   0.27536   0.47769   0.00000  Uiso   1.00
H309   H     0.32518   0.12040   0.55734   0.00000  Uiso   1.00
H310   H     0.11158   0.08381   0.40070   0.00000  Uiso   1.00
H311   H     0.26548   0.40388   0.49570   0.00000  Uiso   1.00
H312   H     0.41947   0.07711   0.66363   0.00000  Uiso   1.00
H313   H     0.96903   0.99996   0.33333   0.00000  Uiso   1.00
O314   O     0.23008   0.48189   0.57685   0.00000  Uiso   1.00
O315   O     0.43209   0.05318   0.79715   0.00000  Uiso   1.00
O316   O     0.84113   0.95196   0.36381   0.00000  Uiso   1.00
N317   N     0.18510   0.39115   0.62149   0.00000  Uiso   1.00
N318   N     0.32908   0.08565   0.77849   0.00000  Uiso   1.00
N319   N     0.90796   0.01350   0.46970   0.00000  Uiso   1.00
N320   N     0.23917   0.38896   0.53355   0.00000  Uiso   1.00
N321   N     0.38314   0.08347   0.69056   0.00000  Uiso   1.00
N322   N     0.96203   0.01132   0.38176   0.00000  Uiso   1.00
C323   C     0.71480   0.07998   0.08898   0.00000  Uiso   1.00
C324   C     0.73289   0.09524   0.16966   0.00000  Uiso   1.00
C325   C     0.74668   0.05642   0.21867   0.00000  Uiso   1.00
C326   C     0.76219   0.07895   0.29012   0.00000  Uiso   1.00
C327   C     0.79007   0.09365   0.41212   0.00000  Uiso   1.00
C328   C     0.77124   0.12784   0.06282   0.00000  Uiso   1.00
C329   C     0.81727   0.11642   0.02199   0.00000  Uiso   1.00
C330   C     0.86505   0.16640   0.00350   0.00000  Uiso   1.00
C331   C     0.95243   0.23171   0.95958   0.00000  Uiso   1.00
C332   C     0.64236   0.09159   0.06168   0.00000  Uiso   1.00
C333   C     0.58001   0.04971   0.01989   0.00000  Uiso   1.00
C334   C     0.51928   0.06918   0.00043   0.00000  Uiso   1.00
C335   C     0.40654   0.07821   0.95475   0.00000  Uiso   1.00
C336   C     0.71783   0.18904   0.12871   0.00000  Uiso   1.00
C337   C     0.73454   0.15448   0.19124   0.00000  Uiso   1.00
C338   C     0.75003   0.17708   0.26264   0.00000  Uiso   1.00
C339   C     0.76383   0.13829   0.31175   0.00000  Uiso   1.00
C340   C     0.77289   0.18707   0.08440   0.00000  Uiso   1.00
C341   C     0.82061   0.23708   0.06596   0.00000  Uiso   1.00
C342   C     0.86670   0.22575   0.02512   0.00000  Uiso   1.00
C343   C     0.64399   0.15083   0.08327   0.00000  Uiso   1.00
C344   C     0.58336   0.17037   0.06386   0.00000  Uiso   1.00
C345   C     0.52093   0.12852   0.02205   0.00000  Uiso   1.00
H346   H     0.71353   0.03386   0.07217   0.00000  Uiso   1.00
H347   H     0.74541   0.01058   0.20195   0.00000  Uiso   1.00
H348   H     0.81598   0.07058   0.00529   0.00000  Uiso   1.00
H349   H     0.57876   0.00387   0.00320   0.00000  Uiso   1.00
H350   H     0.78151   0.01090   0.35535   0.00000  Uiso   1.00
H351   H     0.93029   0.13740   0.94067   0.00000  Uiso   1.00
H352   H     0.43007   0.99675   0.93625   0.00000  Uiso   1.00
H353   H     0.71911   0.23516   0.14552   0.00000  Uiso   1.00
H354   H     0.75129   0.22292   0.27932   0.00000  Uiso   1.00
H355   H     0.82186   0.28292   0.08267   0.00000  Uiso   1.00
H356   H     0.58464   0.21621   0.08057   0.00000  Uiso   1.00
H357   H     0.78629   0.18324   0.41815   0.00000  Uiso   1.00
H358   H     0.93506   0.30975   0.00347   0.00000  Uiso   1.00
H359   H     0.43484   0.16909   0.99905   0.00000  Uiso   1.00
O360   O     0.80500   0.08539   0.47345   0.00000  Uiso   1.00
O361   O     0.00017   0.25136   0.92940   0.00000  Uiso   1.00
O362   O     0.34390   0.06682   0.92360   0.00000  Uiso   1.00
N363   N     0.77820   0.05313   0.35176   0.00000  Uiso   1.00
N364   N     0.91731   0.17141   0.96408   0.00000  Uiso   1.00
N365   N     0.44965   0.03991   0.95992   0.00000  Uiso   1.00
N366   N     0.78077   0.14587   0.38556   0.00000  Uiso   1.00
N367   N     0.91988   0.26415   0.99787   0.00000  Uiso   1.00
N368   N     0.45222   0.13265   0.99372   0.00000  Uiso   1.00
C369   C     0.18188   0.69492   0.12843   0.00000  Uiso   1.00
C370   C     0.24395   0.66891   0.15445   0.00000  Uiso   1.00
C371   C     0.29306   0.66022   0.11594   0.00000  Uiso   1.00
C372   C     0.34590   0.63587   0.14918   0.00000  Uiso   1.00
C373   C     0.44175   0.59781   0.17907   0.00000  Uiso   1.00
C374   C     0.19333   0.74929   0.18279   0.00000  Uiso   1.00
C375   C     0.19988   0.80818   0.16810   0.00000  Uiso   1.00
C376   C     0.21010   0.85149   0.22520   0.00000  Uiso   1.00
C377   C     0.22732   0.93822   0.29907   0.00000  Uiso   1.00
C378   C     0.11282   0.64750   0.13543   0.00000  Uiso   1.00
C379   C     0.05166   0.62081   0.08092   0.00000  Uiso   1.00
C380   C     0.99409   0.57843   0.09814   0.00000  Uiso   1.00
C381   C     0.88631   0.50710   0.09847   0.00000  Uiso   1.00
C382   C     0.18838   0.66710   0.25595   0.00000  Uiso   1.00
C383   C     0.24748   0.65380   0.22372   0.00000  Uiso   1.00
C384   C     0.30025   0.62945   0.25703   0.00000  Uiso   1.00
C385   C     0.34943   0.62073   0.21857   0.00000  Uiso   1.00
C386   C     0.19686   0.73418   0.25206   0.00000  Uiso   1.00
C387   C     0.20707   0.77741   0.30919   0.00000  Uiso   1.00
C388   C     0.21363   0.83636   0.29459   0.00000  Uiso   1.00
C389   C     0.11635   0.63238   0.20469   0.00000  Uiso   1.00
C390   C     0.05886   0.59004   0.22201   0.00000  Uiso   1.00
C391   C     0.99762   0.56329   0.16753   0.00000  Uiso   1.00
H392   H     0.17913   0.70668   0.07450   0.00000  Uiso   1.00
H393   H     0.29031   0.67193   0.06234   0.00000  Uiso   1.00
H394   H     0.19714   0.81986   0.11449   0.00000  Uiso   1.00
H395   H     0.04895   0.63252   0.02732   0.00000  Uiso   1.00
H396   H     0.41515   0.62676   0.07941   0.00000  Uiso   1.00
H397   H     0.21866   0.93868   0.18937   0.00000  Uiso   1.00
H398   H     0.90617   0.54362   0.00555   0.00000  Uiso   1.00
H399   H     0.19113   0.65534   0.30988   0.00000  Uiso   1.00
H400   H     0.30297   0.61776   0.31063   0.00000  Uiso   1.00
H401   H     0.20980   0.76570   0.36278   0.00000  Uiso   1.00
H402   H     0.06161   0.57835   0.27561   0.00000  Uiso   1.00
H403   H     0.42543   0.58280   0.28093   0.00000  Uiso   1.00
H404   H     0.22893   0.89472   0.39089   0.00000  Uiso   1.00
H405   H     0.91645   0.49967   0.20708   0.00000  Uiso   1.00
O406   O     0.49366   0.58100   0.17642   0.00000  Uiso   1.00
O407   O     0.23586   0.99023   0.32069   0.00000  Uiso   1.00
O408   O     0.82589   0.47193   0.07952   0.00000  Uiso   1.00
N409   N     0.40221   0.62155   0.12673   0.00000  Uiso   1.00
N410   N     0.21852   0.91319   0.22954   0.00000  Uiso   1.00
N411   N     0.92636   0.54386   0.05769   0.00000  Uiso   1.00
N412   N     0.40774   0.59790   0.23516   0.00000  Uiso   1.00
N413   N     0.22405   0.88953   0.33798   0.00000  Uiso   1.00
N414   N     0.93189   0.52020   0.16613   0.00000  Uiso   1.00
C415   C     0.59953   0.17414   0.67333   0.00000  Uiso   1.00
C416   C     0.63390   0.20698   0.74854   0.00000  Uiso   1.00
C417   C     0.59704   0.21206   0.80130   0.00000  Uiso   1.00
C418   C     0.63831   0.24394   0.86658   0.00000  Uiso   1.00
C419   C     0.68020   0.29103   0.98153   0.00000  Uiso   1.00
C420   C     0.62131   0.22077   0.62338   0.00000  Uiso   1.00
C421   C     0.57385   0.23746   0.57089   0.00000  Uiso   1.00
C422   C     0.60452   0.28094   0.53080   0.00000  Uiso   1.00
C423   C     0.62687   0.34942   0.45140   0.00000  Uiso   1.00
C424   C     0.63852   0.12726   0.66323   0.00000  Uiso   1.00
C425   C     0.60553   0.06532   0.64422   0.00000  Uiso   1.00
C426   C     0.65069   0.03008   0.63767   0.00000  Uiso   1.00
C427   C     0.69975   0.95336   0.62014   0.00000  Uiso   1.00
C428   C     0.73837   0.22170   0.69546   0.00000  Uiso   1.00
C429   C     0.70932   0.23281   0.76056   0.00000  Uiso   1.00
C430   C     0.75065   0.26469   0.82578   0.00000  Uiso   1.00
C431   C     0.71385   0.26982   0.87862   0.00000  Uiso   1.00
C432   C     0.69672   0.24661   0.63540   0.00000  Uiso   1.00
C433   C     0.72746   0.29008   0.59537   0.00000  Uiso   1.00
C434   C     0.68007   0.30683   0.54284   0.00000  Uiso   1.00
C435   C     0.71393   0.15310   0.67525   0.00000  Uiso   1.00
C436   C     0.75914   0.11794   0.66871   0.00000  Uiso   1.00
C437   C     0.72624   0.05596   0.64971   0.00000  Uiso   1.00
H438   H     0.54082   0.15403   0.66397   0.00000  Uiso   1.00
H439   H     0.53868   0.19207   0.79197   0.00000  Uiso   1.00
H440   H     0.51550   0.21745   0.56160   0.00000  Uiso   1.00
H441   H     0.54717   0.04534   0.63493   0.00000  Uiso   1.00
H442   H     0.56956   0.24566   0.93918   0.00000  Uiso   1.00
H443   H     0.52069   0.29916   0.45341   0.00000  Uiso   1.00
H444   H     0.58748   0.93624   0.60803   0.00000  Uiso   1.00
H445   H     0.79708   0.24182   0.70481   0.00000  Uiso   1.00
H446   H     0.80901   0.28468   0.83507   0.00000  Uiso   1.00
H447   H     0.78583   0.31006   0.60469   0.00000  Uiso   1.00
H448   H     0.81750   0.13795   0.67802   0.00000  Uiso   1.00
H449   H     0.78897   0.32083   0.97416   0.00000  Uiso   1.00
H450   H     0.74009   0.37433   0.48838   0.00000  Uiso   1.00
H451   H     0.80688   0.01141   0.64301   0.00000  Uiso   1.00
O452   O     0.68248   0.30987   0.04161   0.00000  Uiso   1.00
O453   O     0.61836   0.38006   0.40428   0.00000  Uiso   1.00
O454   O     0.70599   0.90391   0.60715   0.00000  Uiso   1.00
N455   N     0.61956   0.25746   0.92954   0.00000  Uiso   1.00
N456   N     0.57387   0.30749   0.47538   0.00000  Uiso   1.00
N457   N     0.63631   0.96819   0.61992   0.00000  Uiso   1.00
N458   N     0.73763   0.29790   0.94836   0.00000  Uiso   1.00
N459   N     0.69193   0.34793   0.49420   0.00000  Uiso   1.00
N460   N     0.75437   0.00863   0.63874   0.00000  Uiso   1.00
C461   C     0.16985   0.65002   0.56984   0.00000  Uiso   1.00
C462   C     0.16204   0.71073   0.59571   0.00000  Uiso   1.00
C463   C     0.16937   0.76076   0.55887   0.00000  Uiso   1.00
C464   C     0.16020   0.81207   0.59163   0.00000  Uiso   1.00
C465   C     0.15054   0.90617   0.62159   0.00000  Uiso   1.00
C466   C     0.22844   0.63863   0.62718   0.00000  Uiso   1.00
C467   C     0.29158   0.62803   0.61679   0.00000  Uiso   1.00
C468   C     0.33831   0.61863   0.67605   0.00000  Uiso   1.00
C469   C     0.43170   0.60075   0.75486   0.00000  Uiso   1.00
C470   C     0.09899   0.60217   0.57142   0.00000  Uiso   1.00
C471   C     0.05330   0.56090   0.51415   0.00000  Uiso   1.00
C472   C     0.99104   0.52079   0.52646   0.00000  Uiso   1.00
C473   C     0.88345   0.44630   0.51869   0.00000  Uiso   1.00
C474   C     0.14054   0.65216   0.69356   0.00000  Uiso   1.00
C475   C     0.14612   0.71189   0.66291   0.00000  Uiso   1.00
C476   C     0.13694   0.76313   0.69574   0.00000  Uiso   1.00
C477   C     0.14425   0.81323   0.65895   0.00000  Uiso   1.00
C478   C     0.21252   0.63979   0.69438   0.00000  Uiso   1.00
C479   C     0.25916   0.63040   0.75367   0.00000  Uiso   1.00
C480   C     0.32236   0.61980   0.74337   0.00000  Uiso   1.00
C481   C     0.08307   0.60333   0.63861   0.00000  Uiso   1.00
C482   C     0.02087   0.56327   0.65102   0.00000  Uiso   1.00
C483   C     0.97510   0.52196   0.59378   0.00000  Uiso   1.00
H484   H     0.18224   0.64911   0.51753   0.00000  Uiso   1.00
H485   H     0.18169   0.75985   0.50687   0.00000  Uiso   1.00
H486   H     0.30388   0.62713   0.56478   0.00000  Uiso   1.00
H487   H     0.06564   0.56001   0.46216   0.00000  Uiso   1.00
H488   H     0.17409   0.88314   0.52469   0.00000  Uiso   1.00
H489   H     0.43172   0.60327   0.64681   0.00000  Uiso   1.00
H490   H     0.92933   0.46175   0.43039   0.00000  Uiso   1.00
H491   H     0.12815   0.65306   0.74587   0.00000  Uiso   1.00
H492   H     0.12462   0.76402   0.74774   0.00000  Uiso   1.00
H493   H     0.24682   0.63130   0.80566   0.00000  Uiso   1.00
H494   H     0.00857   0.56418   0.70303   0.00000  Uiso   1.00
H495   H     0.12778   0.88652   0.72020   0.00000  Uiso   1.00
H496   H     0.38541   0.60666   0.84231   0.00000  Uiso   1.00
H497   H     0.88302   0.46513   0.62590   0.00000  Uiso   1.00
O498   O     0.14962   0.95776   0.61956   0.00000  Uiso   1.00
O499   O     0.48761   0.59057   0.77977   0.00000  Uiso   1.00
O500   O     0.82849   0.40490   0.49584   0.00000  Uiso   1.00
N501   N     0.16366   0.86870   0.57044   0.00000  Uiso   1.00
N502   N     0.40454   0.60706   0.68462   0.00000  Uiso   1.00
N503   N     0.93485   0.47473   0.48229   0.00000  Uiso   1.00
N504   N     0.13874   0.87053   0.67564   0.00000  Uiso   1.00
N505   N     0.37961   0.60888   0.78981   0.00000  Uiso   1.00
N506   N     0.90993   0.47655   0.58749   0.00000  Uiso   1.00
C507   C     0.75273   0.62003   0.09937   0.00000  Uiso   1.00
C508   C     0.80976   0.67343   0.08202   0.00000  Uiso   1.00
C509   C     0.88448   0.68516   0.10289   0.00000  Uiso   1.00
C510   C     0.92747   0.73634   0.08165   0.00000  Uiso   1.00
C511   C     0.02070   0.81349   0.06092   0.00000  Uiso   1.00
C512   C     0.70609   0.64748   0.13669   0.00000  Uiso   1.00
C513   C     0.69363   0.63738   0.20353   0.00000  Uiso   1.00
C514   C     0.64935   0.66671   0.22830   0.00000  Uiso   1.00
C515   C     0.58158   0.70353   0.29244   0.00000  Uiso   1.00
C516   C     0.70362   0.58718   0.02812   0.00000  Uiso   1.00
C517   C     0.68907   0.52638   0.00366   0.00000  Uiso   1.00
C518   C     0.64269   0.50494   0.93703   0.00000  Uiso   1.00
C519   C     0.57109   0.44814   0.83257   0.00000  Uiso   1.00
C520   C     0.69623   0.69008   0.02452   0.00000  Uiso   1.00
C521   C     0.77907   0.71148   0.04137   0.00000  Uiso   1.00
C522   C     0.82197   0.76266   0.02008   0.00000  Uiso   1.00
C523   C     0.89673   0.77446   0.04092   0.00000  Uiso   1.00
C524   C     0.67540   0.68553   0.09604   0.00000  Uiso   1.00
C525   C     0.63112   0.71488   0.12072   0.00000  Uiso   1.00
C526   C     0.61860   0.70483   0.18758   0.00000  Uiso   1.00
C527   C     0.67294   0.62523   0.98746   0.00000  Uiso   1.00
C528   C     0.62657   0.60388   0.92085   0.00000  Uiso   1.00
C529   C     0.61195   0.54305   0.89630   0.00000  Uiso   1.00
H530   H     0.77662   0.59041   0.13102   0.00000  Uiso   1.00
H531   H     0.90820   0.65571   0.13436   0.00000  Uiso   1.00
H532   H     0.71738   0.60793   0.23497   0.00000  Uiso   1.00
H533   H     0.71283   0.49695   0.03514   0.00000  Uiso   1.00
H534   H     0.04055   0.74490   0.12015   0.00000  Uiso   1.00
H535   H     0.63818   0.64414   0.33229   0.00000  Uiso   1.00
H536   H     0.62857   0.41011   0.91090   0.00000  Uiso   1.00
H537   H     0.67234   0.71970   0.99287   0.00000  Uiso   1.00
H538   H     0.79821   0.79209   0.98862   0.00000  Uiso   1.00
H539   H     0.60738   0.74431   0.08924   0.00000  Uiso   1.00
H540   H     0.60283   0.63333   0.88941   0.00000  Uiso   1.00
H541   H     0.95128   0.85559   0.00187   0.00000  Uiso   1.00
H542   H     0.54890   0.75483   0.21401   0.00000  Uiso   1.00
H543   H     0.53929   0.52080   0.79262   0.00000  Uiso   1.00
O544   O     0.08060   0.84554   0.06073   0.00000  Uiso   1.00
O545   O     0.55268   0.71334   0.33905   0.00000  Uiso   1.00
O546   O     0.54008   0.40630   0.78619   0.00000  Uiso   1.00
N547   N     0.00227   0.76101   0.09288   0.00000  Uiso   1.00
N548   N     0.62608   0.66681   0.29123   0.00000  Uiso   1.00
N549   N     0.61708   0.44801   0.89727   0.00000  Uiso   1.00
N550   N     0.95423   0.82057   0.02924   0.00000  Uiso   1.00
N551   N     0.57804   0.72637   0.22758   0.00000  Uiso   1.00
N552   N     0.56904   0.50757   0.83362   0.00000  Uiso   1.00
