data_job_05141
_audit_creation_date              2018-12-19
_audit_creation_method            'Materials Studio'
_symmetry_space_group_name_H-M    'P1'
_symmetry_Int_Tables_number       1
_symmetry_cell_setting            triclinic
loop_
_symmetry_equiv_pos_as_xyz
  x,y,z
_cell_length_a                    13.5537
_cell_length_b                    11.7702
_cell_length_c                    15.1401
_cell_angle_alpha                 90.0000
_cell_angle_beta                  90.0000
_cell_angle_gamma                 90.0000
loop_
_atom_site_label
_atom_site_type_symbol
_atom_site_fract_x
_atom_site_fract_y
_atom_site_fract_z
_atom_site_U_iso_or_equiv
_atom_site_adp_type
_atom_site_occupancy
C1     C     0.98078   0.39353   0.56519   0.00000  Uiso   1.00
C2     C     0.96402   0.30808   0.49099   0.00000  Uiso   1.00
C3     C     0.02689   0.28910   0.42016   0.00000  Uiso   1.00
C4     C     0.99835   0.20726   0.35926   0.00000  Uiso   1.00
C5     C     0.98573   0.08383   0.24255   0.00000  Uiso   1.00
C6     C     0.89020   0.47038   0.56586   0.00000  Uiso   1.00
C7     C     0.89100   0.58785   0.55800   0.00000  Uiso   1.00
C8     C     0.80031   0.64263   0.56015   0.00000  Uiso   1.00
C9     C     0.67308   0.77118   0.55974   0.00000  Uiso   1.00
C10    C     0.97676   0.32569   0.65092   0.00000  Uiso   1.00
C11    C     0.05033   0.32153   0.71459   0.00000  Uiso   1.00
C12    C     0.03251   0.25451   0.78836   0.00000  Uiso   1.00
C13    C     0.03969   0.15841   0.92001   0.00000  Uiso   1.00
C14    C     0.81829   0.28195   0.58299   0.00000  Uiso   1.00
C15    C     0.87576   0.24747   0.50066   0.00000  Uiso   1.00
C16    C     0.84712   0.16564   0.43985   0.00000  Uiso   1.00
C17    C     0.90994   0.14654   0.36895   0.00000  Uiso   1.00
C18    C     0.80194   0.40977   0.57553   0.00000  Uiso   1.00
C19    C     0.71123   0.46439   0.57769   0.00000  Uiso   1.00
C20    C     0.71189   0.58192   0.56983   0.00000  Uiso   1.00
C21    C     0.88851   0.26508   0.66059   0.00000  Uiso   1.00
C22    C     0.87056   0.19806   0.73428   0.00000  Uiso   1.00
C23    C     0.94410   0.19380   0.79804   0.00000  Uiso   1.00
H24    H     0.04948   0.44073   0.55767   0.00000  Uiso   1.00
H25    H     0.09518   0.33603   0.41270   0.00000  Uiso   1.00
H26    H     0.95931   0.63473   0.55053   0.00000  Uiso   1.00
H27    H     0.11862   0.36844   0.70709   0.00000  Uiso   1.00
H28    H     0.10690   0.19325   0.25622   0.00000  Uiso   1.00
H29    H     0.82042   0.82308   0.54688   0.00000  Uiso   1.00
H30    H     0.15635   0.26157   0.87701   0.00000  Uiso   1.00
H31    H     0.74958   0.23476   0.59052   0.00000  Uiso   1.00
H32    H     0.77882   0.11875   0.44735   0.00000  Uiso   1.00
H33    H     0.64295   0.41746   0.58518   0.00000  Uiso   1.00
H34    H     0.80226   0.15117   0.74173   0.00000  Uiso   1.00
H35    H     0.85013   0.01691   0.28434   0.00000  Uiso   1.00
H36    H     0.56364   0.64675   0.57500   0.00000  Uiso   1.00
H37    H     0.89958   0.08522   0.90513   0.00000  Uiso   1.00
O38    O     0.00315   0.03251   0.17549   0.00000  Uiso   1.00
O39    O     0.62729   0.85883   0.55684   0.00000  Uiso   1.00
O40    O     0.06804   0.12213   0.98996   0.00000  Uiso   1.00
N41    N     0.04247   0.16765   0.28250   0.00000  Uiso   1.00
N42    N     0.77462   0.75651   0.55423   0.00000  Uiso   1.00
N43    N     0.08868   0.23156   0.86288   0.00000  Uiso   1.00
N44    N     0.90430   0.07276   0.29763   0.00000  Uiso   1.00
N45    N     0.63645   0.66162   0.56936   0.00000  Uiso   1.00
N46    N     0.95052   0.13667   0.87802   0.00000  Uiso   1.00
C47    C     0.01922   0.60647   0.06519   0.00000  Uiso   1.00
C48    C     0.03598   0.69192   0.99099   0.00000  Uiso   1.00
C49    C     0.97311   0.71090   0.92016   0.00000  Uiso   1.00
C50    C     0.00165   0.79274   0.85926   0.00000  Uiso   1.00
C51    C     0.01427   0.91617   0.74255   0.00000  Uiso   1.00
C52    C     0.10980   0.52962   0.06586   0.00000  Uiso   1.00
C53    C     0.10900   0.41215   0.05800   0.00000  Uiso   1.00
C54    C     0.19969   0.35737   0.06015   0.00000  Uiso   1.00
C55    C     0.32692   0.22882   0.05974   0.00000  Uiso   1.00
C56    C     0.02324   0.67431   0.15092   0.00000  Uiso   1.00
C57    C     0.94967   0.67847   0.21459   0.00000  Uiso   1.00
C58    C     0.96749   0.74549   0.28836   0.00000  Uiso   1.00
C59    C     0.96031   0.84159   0.42001   0.00000  Uiso   1.00
C60    C     0.18171   0.71805   0.08299   0.00000  Uiso   1.00
C61    C     0.12424   0.75253   0.00066   0.00000  Uiso   1.00
C62    C     0.15288   0.83436   0.93985   0.00000  Uiso   1.00
C63    C     0.09006   0.85346   0.86895   0.00000  Uiso   1.00
C64    C     0.19806   0.59023   0.07553   0.00000  Uiso   1.00
C65    C     0.28877   0.53561   0.07769   0.00000  Uiso   1.00
C66    C     0.28811   0.41808   0.06983   0.00000  Uiso   1.00
C67    C     0.11149   0.73492   0.16059   0.00000  Uiso   1.00
C68    C     0.12944   0.80194   0.23428   0.00000  Uiso   1.00
C69    C     0.05590   0.80620   0.29804   0.00000  Uiso   1.00
H70    H     0.95052   0.55927   0.05767   0.00000  Uiso   1.00
H71    H     0.90482   0.66397   0.91270   0.00000  Uiso   1.00
H72    H     0.04069   0.36527   0.05053   0.00000  Uiso   1.00
H73    H     0.88138   0.63156   0.20709   0.00000  Uiso   1.00
H74    H     0.89310   0.80675   0.75622   0.00000  Uiso   1.00
H75    H     0.17958   0.17692   0.04688   0.00000  Uiso   1.00
H76    H     0.84365   0.73843   0.37701   0.00000  Uiso   1.00
H77    H     0.25042   0.76524   0.09052   0.00000  Uiso   1.00
H78    H     0.22118   0.88125   0.94735   0.00000  Uiso   1.00
H79    H     0.35705   0.58254   0.08518   0.00000  Uiso   1.00
H80    H     0.19774   0.84883   0.24173   0.00000  Uiso   1.00
H81    H     0.14987   0.98309   0.78434   0.00000  Uiso   1.00
H82    H     0.43636   0.35325   0.07500   0.00000  Uiso   1.00
H83    H     0.10042   0.91478   0.40513   0.00000  Uiso   1.00
O84    O     0.99685   0.96749   0.67549   0.00000  Uiso   1.00
O85    O     0.37271   0.14117   0.05684   0.00000  Uiso   1.00
O86    O     0.93196   0.87787   0.48996   0.00000  Uiso   1.00
N87    N     0.95753   0.83235   0.78250   0.00000  Uiso   1.00
N88    N     0.22538   0.24349   0.05423   0.00000  Uiso   1.00
N89    N     0.91132   0.76844   0.36288   0.00000  Uiso   1.00
N90    N     0.09570   0.92724   0.79763   0.00000  Uiso   1.00
N91    N     0.36355   0.33838   0.06936   0.00000  Uiso   1.00
N92    N     0.04948   0.86333   0.37802   0.00000  Uiso   1.00
C93    C     0.48078   0.10647   0.56519   0.00000  Uiso   1.00
C94    C     0.46402   0.19192   0.49099   0.00000  Uiso   1.00
C95    C     0.52689   0.21090   0.42016   0.00000  Uiso   1.00
C96    C     0.49835   0.29274   0.35926   0.00000  Uiso   1.00
C97    C     0.48573   0.41617   0.24255   0.00000  Uiso   1.00
C98    C     0.39020   0.02962   0.56586   0.00000  Uiso   1.00
C99    C     0.39100   0.91215   0.55800   0.00000  Uiso   1.00
C100   C     0.30031   0.85737   0.56015   0.00000  Uiso   1.00
C101   C     0.17308   0.72882   0.55974   0.00000  Uiso   1.00
C102   C     0.47676   0.17431   0.65092   0.00000  Uiso   1.00
C103   C     0.55033   0.17847   0.71459   0.00000  Uiso   1.00
C104   C     0.53251   0.24549   0.78836   0.00000  Uiso   1.00
C105   C     0.53969   0.34159   0.92001   0.00000  Uiso   1.00
C106   C     0.31829   0.21805   0.58299   0.00000  Uiso   1.00
C107   C     0.37576   0.25253   0.50066   0.00000  Uiso   1.00
C108   C     0.34712   0.33436   0.43985   0.00000  Uiso   1.00
C109   C     0.40994   0.35346   0.36895   0.00000  Uiso   1.00
C110   C     0.30194   0.09023   0.57553   0.00000  Uiso   1.00
C111   C     0.21123   0.03561   0.57769   0.00000  Uiso   1.00
C112   C     0.21189   0.91808   0.56983   0.00000  Uiso   1.00
C113   C     0.38851   0.23492   0.66059   0.00000  Uiso   1.00
C114   C     0.37056   0.30194   0.73428   0.00000  Uiso   1.00
C115   C     0.44410   0.30620   0.79804   0.00000  Uiso   1.00
H116   H     0.54948   0.05927   0.55767   0.00000  Uiso   1.00
H117   H     0.59518   0.16397   0.41270   0.00000  Uiso   1.00
H118   H     0.45931   0.86527   0.55053   0.00000  Uiso   1.00
H119   H     0.61862   0.13156   0.70709   0.00000  Uiso   1.00
H120   H     0.60690   0.30675   0.25622   0.00000  Uiso   1.00
H121   H     0.32042   0.67692   0.54688   0.00000  Uiso   1.00
H122   H     0.65635   0.23843   0.87701   0.00000  Uiso   1.00
H123   H     0.24958   0.26524   0.59052   0.00000  Uiso   1.00
H124   H     0.27882   0.38125   0.44735   0.00000  Uiso   1.00
H125   H     0.14295   0.08254   0.58518   0.00000  Uiso   1.00
H126   H     0.30226   0.34883   0.74173   0.00000  Uiso   1.00
H127   H     0.35013   0.48309   0.28434   0.00000  Uiso   1.00
H128   H     0.06364   0.85325   0.57500   0.00000  Uiso   1.00
H129   H     0.39958   0.41478   0.90513   0.00000  Uiso   1.00
O130   O     0.50315   0.46749   0.17549   0.00000  Uiso   1.00
O131   O     0.12729   0.64117   0.55684   0.00000  Uiso   1.00
O132   O     0.56804   0.37787   0.98996   0.00000  Uiso   1.00
N133   N     0.54247   0.33235   0.28250   0.00000  Uiso   1.00
N134   N     0.27462   0.74349   0.55423   0.00000  Uiso   1.00
N135   N     0.58868   0.26844   0.86288   0.00000  Uiso   1.00
N136   N     0.40430   0.42724   0.29763   0.00000  Uiso   1.00
N137   N     0.13645   0.83838   0.56936   0.00000  Uiso   1.00
N138   N     0.45052   0.36333   0.87802   0.00000  Uiso   1.00
C139   C     0.51922   0.89353   0.06519   0.00000  Uiso   1.00
C140   C     0.53598   0.80808   0.99099   0.00000  Uiso   1.00
C141   C     0.47311   0.78910   0.92016   0.00000  Uiso   1.00
C142   C     0.50165   0.70726   0.85926   0.00000  Uiso   1.00
C143   C     0.51427   0.58383   0.74255   0.00000  Uiso   1.00
C144   C     0.60980   0.97038   0.06586   0.00000  Uiso   1.00
C145   C     0.60900   0.08785   0.05800   0.00000  Uiso   1.00
C146   C     0.69969   0.14263   0.06015   0.00000  Uiso   1.00
C147   C     0.82692   0.27118   0.05974   0.00000  Uiso   1.00
C148   C     0.52324   0.82569   0.15092   0.00000  Uiso   1.00
C149   C     0.44967   0.82153   0.21459   0.00000  Uiso   1.00
C150   C     0.46749   0.75451   0.28836   0.00000  Uiso   1.00
C151   C     0.46031   0.65841   0.42001   0.00000  Uiso   1.00
C152   C     0.68171   0.78195   0.08299   0.00000  Uiso   1.00
C153   C     0.62424   0.74747   0.00066   0.00000  Uiso   1.00
C154   C     0.65288   0.66564   0.93985   0.00000  Uiso   1.00
C155   C     0.59006   0.64654   0.86895   0.00000  Uiso   1.00
C156   C     0.69806   0.90977   0.07553   0.00000  Uiso   1.00
C157   C     0.78877   0.96439   0.07769   0.00000  Uiso   1.00
C158   C     0.78811   0.08192   0.06983   0.00000  Uiso   1.00
C159   C     0.61149   0.76508   0.16059   0.00000  Uiso   1.00
C160   C     0.62944   0.69806   0.23428   0.00000  Uiso   1.00
C161   C     0.55590   0.69380   0.29804   0.00000  Uiso   1.00
H162   H     0.45052   0.94073   0.05767   0.00000  Uiso   1.00
H163   H     0.40482   0.83603   0.91270   0.00000  Uiso   1.00
H164   H     0.54069   0.13473   0.05053   0.00000  Uiso   1.00
H165   H     0.38138   0.86844   0.20709   0.00000  Uiso   1.00
H166   H     0.39310   0.69325   0.75622   0.00000  Uiso   1.00
H167   H     0.67958   0.32308   0.04688   0.00000  Uiso   1.00
H168   H     0.34365   0.76157   0.37701   0.00000  Uiso   1.00
H169   H     0.75042   0.73476   0.09052   0.00000  Uiso   1.00
H170   H     0.72118   0.61875   0.94735   0.00000  Uiso   1.00
H171   H     0.85705   0.91746   0.08518   0.00000  Uiso   1.00
H172   H     0.69774   0.65117   0.24173   0.00000  Uiso   1.00
H173   H     0.64987   0.51691   0.78434   0.00000  Uiso   1.00
H174   H     0.93636   0.14675   0.07500   0.00000  Uiso   1.00
H175   H     0.60042   0.58522   0.40513   0.00000  Uiso   1.00
O176   O     0.49685   0.53251   0.67549   0.00000  Uiso   1.00
O177   O     0.87271   0.35883   0.05684   0.00000  Uiso   1.00
O178   O     0.43196   0.62213   0.48996   0.00000  Uiso   1.00
N179   N     0.45753   0.66765   0.78250   0.00000  Uiso   1.00
N180   N     0.72538   0.25651   0.05423   0.00000  Uiso   1.00
N181   N     0.41132   0.73156   0.36288   0.00000  Uiso   1.00
N182   N     0.59570   0.57276   0.79763   0.00000  Uiso   1.00
N183   N     0.86355   0.16162   0.06936   0.00000  Uiso   1.00
N184   N     0.54948   0.63667   0.37802   0.00000  Uiso   1.00
