data_job_03706
_audit_creation_date              2018-12-19
_audit_creation_method            'Materials Studio'
_symmetry_space_group_name_H-M    'P1'
_symmetry_Int_Tables_number       1
_symmetry_cell_setting            triclinic
loop_
_symmetry_equiv_pos_as_xyz
  x,y,z
_cell_length_a                    30.8253
_cell_length_b                    14.6819
_cell_length_c                    10.4916
_cell_angle_alpha                 90.0000
_cell_angle_beta                  98.2960
_cell_angle_gamma                 90.0000
loop_
_atom_site_label
_atom_site_type_symbol
_atom_site_fract_x
_atom_site_fract_y
_atom_site_fract_z
_atom_site_U_iso_or_equiv
_atom_site_adp_type
_atom_site_occupancy
C1     C     0.16996   0.05355   0.84080   0.00000  Uiso   1.00
C2     C     0.13093   0.00689   0.76113   0.00000  Uiso   1.00
C3     C     0.11414   0.92218   0.78654   0.00000  Uiso   1.00
C4     C     0.07828   0.89141   0.70214   0.00000  Uiso   1.00
C5     C     0.02048   0.81101   0.59451   0.00000  Uiso   1.00
C6     C     0.20247   0.07376   0.74784   0.00000  Uiso   1.00
C7     C     0.24583   0.04528   0.76209   0.00000  Uiso   1.00
C8     C     0.27020   0.07082   0.66650   0.00000  Uiso   1.00
C9     C     0.32348   0.09429   0.53829   0.00000  Uiso   1.00
C10    C     0.15331   0.14580   0.87974   0.00000  Uiso   1.00
C11    C     0.15534   0.17790   0.00488   0.00000  Uiso   1.00
C12    C     0.13833   0.26410   0.02034   0.00000  Uiso   1.00
C13    C     0.11527   0.39942   0.09692   0.00000  Uiso   1.00
C14    C     0.13614   0.14958   0.64573   0.00000  Uiso   1.00
C15    C     0.11256   0.05905   0.65518   0.00000  Uiso   1.00
C16    C     0.07671   0.02841   0.57071   0.00000  Uiso   1.00
C17    C     0.05987   0.94367   0.59599   0.00000  Uiso   1.00
C18    C     0.18410   0.12592   0.64189   0.00000  Uiso   1.00
C19    C     0.20841   0.15152   0.54626   0.00000  Uiso   1.00
C20    C     0.25179   0.12307   0.56035   0.00000  Uiso   1.00
C21    C     0.13493   0.19796   0.77378   0.00000  Uiso   1.00
C22    C     0.11792   0.28413   0.78905   0.00000  Uiso   1.00
C23    C     0.11992   0.31635   0.91419   0.00000  Uiso   1.00
H24    H     0.18427   0.01295   0.92329   0.00000  Uiso   1.00
H25    H     0.12837   0.88183   0.86854   0.00000  Uiso   1.00
H26    H     0.26004   0.00492   0.84410   0.00000  Uiso   1.00
H27    H     0.16957   0.13752   0.08685   0.00000  Uiso   1.00
H28    H     0.05830   0.75945   0.76109   0.00000  Uiso   1.00
H29    H     0.33595   0.01902   0.70957   0.00000  Uiso   1.00
H30    H     0.14516   0.29863   0.22146   0.00000  Uiso   1.00
H31    H     0.12183   0.19019   0.56323   0.00000  Uiso   1.00
H32    H     0.06250   0.06879   0.48873   0.00000  Uiso   1.00
H33    H     0.19418   0.19188   0.46429   0.00000  Uiso   1.00
H34    H     0.10370   0.32448   0.70704   0.00000  Uiso   1.00
H35    H     0.00484   0.91119   0.45281   0.00000  Uiso   1.00
H36    H     0.28249   0.17076   0.40130   0.00000  Uiso   1.00
H37    H     0.09170   0.45037   0.91319   0.00000  Uiso   1.00
O38    O     0.99367   0.75225   0.56441   0.00000  Uiso   1.00
O39    O     0.35794   0.09281   0.49684   0.00000  Uiso   1.00
O40    O     0.10763   0.45965   0.16843   0.00000  Uiso   1.00
N41    N     0.05385   0.81183   0.69878   0.00000  Uiso   1.00
N42    N     0.31344   0.05450   0.65060   0.00000  Uiso   1.00
N43    N     0.13508   0.31592   0.12918   0.00000  Uiso   1.00
N44    N     0.02509   0.89348   0.53290   0.00000  Uiso   1.00
N45    N     0.28467   0.13615   0.48472   0.00000  Uiso   1.00
N46    N     0.10631   0.39757   0.96330   0.00000  Uiso   1.00
C47    C     0.66996   0.55355   0.84080   0.00000  Uiso   1.00
C48    C     0.63093   0.50689   0.76113   0.00000  Uiso   1.00
C49    C     0.61414   0.42218   0.78654   0.00000  Uiso   1.00
C50    C     0.57828   0.39141   0.70214   0.00000  Uiso   1.00
C51    C     0.52048   0.31101   0.59451   0.00000  Uiso   1.00
C52    C     0.70247   0.57376   0.74784   0.00000  Uiso   1.00
C53    C     0.74583   0.54528   0.76209   0.00000  Uiso   1.00
C54    C     0.77020   0.57082   0.66650   0.00000  Uiso   1.00
C55    C     0.82348   0.59429   0.53829   0.00000  Uiso   1.00
C56    C     0.65331   0.64580   0.87974   0.00000  Uiso   1.00
C57    C     0.65534   0.67790   0.00488   0.00000  Uiso   1.00
C58    C     0.63833   0.76410   0.02034   0.00000  Uiso   1.00
C59    C     0.61527   0.89942   0.09692   0.00000  Uiso   1.00
C60    C     0.63614   0.64958   0.64573   0.00000  Uiso   1.00
C61    C     0.61256   0.55905   0.65518   0.00000  Uiso   1.00
C62    C     0.57671   0.52841   0.57071   0.00000  Uiso   1.00
C63    C     0.55987   0.44367   0.59599   0.00000  Uiso   1.00
C64    C     0.68410   0.62592   0.64189   0.00000  Uiso   1.00
C65    C     0.70841   0.65152   0.54626   0.00000  Uiso   1.00
C66    C     0.75179   0.62307   0.56035   0.00000  Uiso   1.00
C67    C     0.63493   0.69796   0.77378   0.00000  Uiso   1.00
C68    C     0.61792   0.78413   0.78905   0.00000  Uiso   1.00
C69    C     0.61992   0.81635   0.91419   0.00000  Uiso   1.00
H70    H     0.68427   0.51295   0.92329   0.00000  Uiso   1.00
H71    H     0.62837   0.38183   0.86854   0.00000  Uiso   1.00
H72    H     0.76004   0.50492   0.84410   0.00000  Uiso   1.00
H73    H     0.66957   0.63752   0.08685   0.00000  Uiso   1.00
H74    H     0.55830   0.25945   0.76109   0.00000  Uiso   1.00
H75    H     0.83595   0.51902   0.70957   0.00000  Uiso   1.00
H76    H     0.64516   0.79863   0.22146   0.00000  Uiso   1.00
H77    H     0.62183   0.69019   0.56323   0.00000  Uiso   1.00
H78    H     0.56250   0.56879   0.48873   0.00000  Uiso   1.00
H79    H     0.69418   0.69188   0.46429   0.00000  Uiso   1.00
H80    H     0.60370   0.82448   0.70704   0.00000  Uiso   1.00
H81    H     0.50484   0.41119   0.45281   0.00000  Uiso   1.00
H82    H     0.78249   0.67076   0.40130   0.00000  Uiso   1.00
H83    H     0.59170   0.95037   0.91319   0.00000  Uiso   1.00
O84    O     0.49367   0.25225   0.56441   0.00000  Uiso   1.00
O85    O     0.85794   0.59281   0.49684   0.00000  Uiso   1.00
O86    O     0.60763   0.95965   0.16843   0.00000  Uiso   1.00
N87    N     0.55385   0.31183   0.69878   0.00000  Uiso   1.00
N88    N     0.81344   0.55450   0.65060   0.00000  Uiso   1.00
N89    N     0.63508   0.81592   0.12918   0.00000  Uiso   1.00
N90    N     0.52509   0.39348   0.53290   0.00000  Uiso   1.00
N91    N     0.78467   0.63615   0.48472   0.00000  Uiso   1.00
N92    N     0.60631   0.89757   0.96330   0.00000  Uiso   1.00
C93    C     0.83004   0.05355   0.65920   0.00000  Uiso   1.00
C94    C     0.86907   0.00689   0.73887   0.00000  Uiso   1.00
C95    C     0.88586   0.92218   0.71346   0.00000  Uiso   1.00
C96    C     0.92172   0.89141   0.79786   0.00000  Uiso   1.00
C97    C     0.97952   0.81101   0.90549   0.00000  Uiso   1.00
C98    C     0.79753   0.07376   0.75216   0.00000  Uiso   1.00
C99    C     0.75417   0.04528   0.73791   0.00000  Uiso   1.00
C100   C     0.72980   0.07082   0.83350   0.00000  Uiso   1.00
C101   C     0.67652   0.09429   0.96171   0.00000  Uiso   1.00
C102   C     0.84669   0.14580   0.62026   0.00000  Uiso   1.00
C103   C     0.84466   0.17790   0.49512   0.00000  Uiso   1.00
C104   C     0.86167   0.26410   0.47966   0.00000  Uiso   1.00
C105   C     0.88473   0.39942   0.40308   0.00000  Uiso   1.00
C106   C     0.86386   0.14958   0.85427   0.00000  Uiso   1.00
C107   C     0.88744   0.05905   0.84482   0.00000  Uiso   1.00
C108   C     0.92329   0.02841   0.92929   0.00000  Uiso   1.00
C109   C     0.94013   0.94367   0.90401   0.00000  Uiso   1.00
C110   C     0.81590   0.12592   0.85811   0.00000  Uiso   1.00
C111   C     0.79159   0.15152   0.95374   0.00000  Uiso   1.00
C112   C     0.74821   0.12307   0.93965   0.00000  Uiso   1.00
C113   C     0.86507   0.19796   0.72622   0.00000  Uiso   1.00
C114   C     0.88208   0.28413   0.71095   0.00000  Uiso   1.00
C115   C     0.88008   0.31635   0.58581   0.00000  Uiso   1.00
H116   H     0.81573   0.01295   0.57671   0.00000  Uiso   1.00
H117   H     0.87163   0.88183   0.63146   0.00000  Uiso   1.00
H118   H     0.73996   0.00492   0.65590   0.00000  Uiso   1.00
H119   H     0.83043   0.13752   0.41315   0.00000  Uiso   1.00
H120   H     0.94170   0.75945   0.73891   0.00000  Uiso   1.00
H121   H     0.66405   0.01902   0.79043   0.00000  Uiso   1.00
H122   H     0.85484   0.29863   0.27854   0.00000  Uiso   1.00
H123   H     0.87817   0.19019   0.93677   0.00000  Uiso   1.00
H124   H     0.93750   0.06879   0.01127   0.00000  Uiso   1.00
H125   H     0.80582   0.19188   0.03571   0.00000  Uiso   1.00
H126   H     0.89630   0.32448   0.79296   0.00000  Uiso   1.00
H127   H     0.99516   0.91119   0.04719   0.00000  Uiso   1.00
H128   H     0.71751   0.17076   0.09870   0.00000  Uiso   1.00
H129   H     0.90830   0.45037   0.58681   0.00000  Uiso   1.00
O130   O     0.00633   0.75225   0.93559   0.00000  Uiso   1.00
O131   O     0.64206   0.09281   0.00316   0.00000  Uiso   1.00
O132   O     0.89237   0.45965   0.33157   0.00000  Uiso   1.00
N133   N     0.94615   0.81183   0.80122   0.00000  Uiso   1.00
N134   N     0.68656   0.05450   0.84940   0.00000  Uiso   1.00
N135   N     0.86492   0.31592   0.37082   0.00000  Uiso   1.00
N136   N     0.97491   0.89348   0.96710   0.00000  Uiso   1.00
N137   N     0.71533   0.13615   0.01528   0.00000  Uiso   1.00
N138   N     0.89369   0.39757   0.53670   0.00000  Uiso   1.00
C139   C     0.33004   0.55355   0.65920   0.00000  Uiso   1.00
C140   C     0.36907   0.50689   0.73887   0.00000  Uiso   1.00
C141   C     0.38586   0.42218   0.71346   0.00000  Uiso   1.00
C142   C     0.42172   0.39141   0.79786   0.00000  Uiso   1.00
C143   C     0.47952   0.31101   0.90549   0.00000  Uiso   1.00
C144   C     0.29753   0.57376   0.75216   0.00000  Uiso   1.00
C145   C     0.25417   0.54528   0.73791   0.00000  Uiso   1.00
C146   C     0.22980   0.57082   0.83350   0.00000  Uiso   1.00
C147   C     0.17652   0.59429   0.96171   0.00000  Uiso   1.00
C148   C     0.34669   0.64580   0.62026   0.00000  Uiso   1.00
C149   C     0.34466   0.67790   0.49512   0.00000  Uiso   1.00
C150   C     0.36167   0.76410   0.47966   0.00000  Uiso   1.00
C151   C     0.38473   0.89942   0.40308   0.00000  Uiso   1.00
C152   C     0.36386   0.64958   0.85427   0.00000  Uiso   1.00
C153   C     0.38744   0.55905   0.84482   0.00000  Uiso   1.00
C154   C     0.42329   0.52841   0.92929   0.00000  Uiso   1.00
C155   C     0.44013   0.44367   0.90401   0.00000  Uiso   1.00
C156   C     0.31590   0.62592   0.85811   0.00000  Uiso   1.00
C157   C     0.29159   0.65152   0.95374   0.00000  Uiso   1.00
C158   C     0.24821   0.62307   0.93965   0.00000  Uiso   1.00
C159   C     0.36507   0.69796   0.72622   0.00000  Uiso   1.00
C160   C     0.38208   0.78413   0.71095   0.00000  Uiso   1.00
C161   C     0.38008   0.81635   0.58581   0.00000  Uiso   1.00
H162   H     0.31573   0.51295   0.57671   0.00000  Uiso   1.00
H163   H     0.37163   0.38183   0.63146   0.00000  Uiso   1.00
H164   H     0.23996   0.50492   0.65590   0.00000  Uiso   1.00
H165   H     0.33043   0.63752   0.41315   0.00000  Uiso   1.00
H166   H     0.44170   0.25945   0.73891   0.00000  Uiso   1.00
H167   H     0.16405   0.51902   0.79043   0.00000  Uiso   1.00
H168   H     0.35484   0.79863   0.27854   0.00000  Uiso   1.00
H169   H     0.37817   0.69019   0.93677   0.00000  Uiso   1.00
H170   H     0.43750   0.56879   0.01127   0.00000  Uiso   1.00
H171   H     0.30582   0.69188   0.03571   0.00000  Uiso   1.00
H172   H     0.39630   0.82448   0.79296   0.00000  Uiso   1.00
H173   H     0.49516   0.41119   0.04719   0.00000  Uiso   1.00
H174   H     0.21751   0.67076   0.09870   0.00000  Uiso   1.00
H175   H     0.40830   0.95037   0.58681   0.00000  Uiso   1.00
O176   O     0.50633   0.25225   0.93559   0.00000  Uiso   1.00
O177   O     0.14206   0.59281   0.00316   0.00000  Uiso   1.00
O178   O     0.39237   0.95965   0.33157   0.00000  Uiso   1.00
N179   N     0.44615   0.31183   0.80122   0.00000  Uiso   1.00
N180   N     0.18656   0.55450   0.84940   0.00000  Uiso   1.00
N181   N     0.36492   0.81592   0.37082   0.00000  Uiso   1.00
N182   N     0.47491   0.39348   0.96710   0.00000  Uiso   1.00
N183   N     0.21533   0.63615   0.01528   0.00000  Uiso   1.00
N184   N     0.39369   0.89757   0.53670   0.00000  Uiso   1.00
C185   C     0.83004   0.94645   0.15920   0.00000  Uiso   1.00
C186   C     0.86907   0.99311   0.23887   0.00000  Uiso   1.00
C187   C     0.88586   0.07782   0.21346   0.00000  Uiso   1.00
C188   C     0.92172   0.10859   0.29786   0.00000  Uiso   1.00
C189   C     0.97952   0.18899   0.40549   0.00000  Uiso   1.00
C190   C     0.79753   0.92624   0.25216   0.00000  Uiso   1.00
C191   C     0.75417   0.95472   0.23791   0.00000  Uiso   1.00
C192   C     0.72980   0.92918   0.33350   0.00000  Uiso   1.00
C193   C     0.67652   0.90571   0.46171   0.00000  Uiso   1.00
C194   C     0.84669   0.85420   0.12026   0.00000  Uiso   1.00
C195   C     0.84466   0.82210   0.99512   0.00000  Uiso   1.00
C196   C     0.86167   0.73590   0.97966   0.00000  Uiso   1.00
C197   C     0.88473   0.60058   0.90308   0.00000  Uiso   1.00
C198   C     0.86386   0.85042   0.35427   0.00000  Uiso   1.00
C199   C     0.88744   0.94095   0.34482   0.00000  Uiso   1.00
C200   C     0.92329   0.97159   0.42929   0.00000  Uiso   1.00
C201   C     0.94013   0.05633   0.40401   0.00000  Uiso   1.00
C202   C     0.81590   0.87408   0.35811   0.00000  Uiso   1.00
C203   C     0.79159   0.84848   0.45374   0.00000  Uiso   1.00
C204   C     0.74821   0.87693   0.43965   0.00000  Uiso   1.00
C205   C     0.86507   0.80204   0.22622   0.00000  Uiso   1.00
C206   C     0.88208   0.71587   0.21095   0.00000  Uiso   1.00
C207   C     0.88008   0.68365   0.08581   0.00000  Uiso   1.00
H208   H     0.81573   0.98705   0.07671   0.00000  Uiso   1.00
H209   H     0.87163   0.11817   0.13146   0.00000  Uiso   1.00
H210   H     0.73996   0.99508   0.15590   0.00000  Uiso   1.00
H211   H     0.83043   0.86248   0.91315   0.00000  Uiso   1.00
H212   H     0.94170   0.24055   0.23891   0.00000  Uiso   1.00
H213   H     0.66405   0.98098   0.29043   0.00000  Uiso   1.00
H214   H     0.85484   0.70137   0.77854   0.00000  Uiso   1.00
H215   H     0.87817   0.80981   0.43677   0.00000  Uiso   1.00
H216   H     0.93750   0.93121   0.51127   0.00000  Uiso   1.00
H217   H     0.80582   0.80812   0.53571   0.00000  Uiso   1.00
H218   H     0.89630   0.67552   0.29296   0.00000  Uiso   1.00
H219   H     0.99516   0.08881   0.54719   0.00000  Uiso   1.00
H220   H     0.71751   0.82924   0.59870   0.00000  Uiso   1.00
H221   H     0.90830   0.54963   0.08681   0.00000  Uiso   1.00
O222   O     0.00633   0.24775   0.43559   0.00000  Uiso   1.00
O223   O     0.64206   0.90719   0.50316   0.00000  Uiso   1.00
O224   O     0.89237   0.54035   0.83157   0.00000  Uiso   1.00
N225   N     0.94615   0.18817   0.30122   0.00000  Uiso   1.00
N226   N     0.68656   0.94550   0.34940   0.00000  Uiso   1.00
N227   N     0.86492   0.68408   0.87082   0.00000  Uiso   1.00
N228   N     0.97491   0.10652   0.46710   0.00000  Uiso   1.00
N229   N     0.71533   0.86385   0.51528   0.00000  Uiso   1.00
N230   N     0.89369   0.60243   0.03670   0.00000  Uiso   1.00
C231   C     0.33004   0.44645   0.15920   0.00000  Uiso   1.00
C232   C     0.36907   0.49311   0.23887   0.00000  Uiso   1.00
C233   C     0.38586   0.57782   0.21346   0.00000  Uiso   1.00
C234   C     0.42172   0.60859   0.29786   0.00000  Uiso   1.00
C235   C     0.47952   0.68899   0.40549   0.00000  Uiso   1.00
C236   C     0.29753   0.42624   0.25216   0.00000  Uiso   1.00
C237   C     0.25417   0.45472   0.23791   0.00000  Uiso   1.00
C238   C     0.22980   0.42918   0.33350   0.00000  Uiso   1.00
C239   C     0.17652   0.40571   0.46171   0.00000  Uiso   1.00
C240   C     0.34669   0.35420   0.12026   0.00000  Uiso   1.00
C241   C     0.34466   0.32210   0.99512   0.00000  Uiso   1.00
C242   C     0.36167   0.23590   0.97966   0.00000  Uiso   1.00
C243   C     0.38473   0.10058   0.90308   0.00000  Uiso   1.00
C244   C     0.36386   0.35042   0.35427   0.00000  Uiso   1.00
C245   C     0.38744   0.44095   0.34482   0.00000  Uiso   1.00
C246   C     0.42329   0.47159   0.42929   0.00000  Uiso   1.00
C247   C     0.44013   0.55633   0.40401   0.00000  Uiso   1.00
C248   C     0.31590   0.37408   0.35811   0.00000  Uiso   1.00
C249   C     0.29159   0.34848   0.45374   0.00000  Uiso   1.00
C250   C     0.24821   0.37693   0.43965   0.00000  Uiso   1.00
C251   C     0.36507   0.30204   0.22622   0.00000  Uiso   1.00
C252   C     0.38208   0.21587   0.21095   0.00000  Uiso   1.00
C253   C     0.38008   0.18365   0.08581   0.00000  Uiso   1.00
H254   H     0.31573   0.48705   0.07671   0.00000  Uiso   1.00
H255   H     0.37163   0.61817   0.13146   0.00000  Uiso   1.00
H256   H     0.23996   0.49508   0.15590   0.00000  Uiso   1.00
H257   H     0.33043   0.36248   0.91315   0.00000  Uiso   1.00
H258   H     0.44170   0.74055   0.23891   0.00000  Uiso   1.00
H259   H     0.16405   0.48098   0.29043   0.00000  Uiso   1.00
H260   H     0.35484   0.20137   0.77854   0.00000  Uiso   1.00
H261   H     0.37817   0.30981   0.43677   0.00000  Uiso   1.00
H262   H     0.43750   0.43121   0.51127   0.00000  Uiso   1.00
H263   H     0.30582   0.30812   0.53571   0.00000  Uiso   1.00
H264   H     0.39630   0.17552   0.29296   0.00000  Uiso   1.00
H265   H     0.49516   0.58881   0.54719   0.00000  Uiso   1.00
H266   H     0.21751   0.32924   0.59870   0.00000  Uiso   1.00
H267   H     0.40830   0.04963   0.08681   0.00000  Uiso   1.00
O268   O     0.50633   0.74775   0.43559   0.00000  Uiso   1.00
O269   O     0.14206   0.40719   0.50316   0.00000  Uiso   1.00
O270   O     0.39237   0.04035   0.83157   0.00000  Uiso   1.00
N271   N     0.44615   0.68817   0.30122   0.00000  Uiso   1.00
N272   N     0.18656   0.44550   0.34940   0.00000  Uiso   1.00
N273   N     0.36492   0.18408   0.87082   0.00000  Uiso   1.00
N274   N     0.47491   0.60652   0.46710   0.00000  Uiso   1.00
N275   N     0.21533   0.36385   0.51528   0.00000  Uiso   1.00
N276   N     0.39369   0.10243   0.03670   0.00000  Uiso   1.00
C277   C     0.16996   0.94645   0.34080   0.00000  Uiso   1.00
C278   C     0.13093   0.99311   0.26113   0.00000  Uiso   1.00
C279   C     0.11414   0.07782   0.28654   0.00000  Uiso   1.00
C280   C     0.07828   0.10859   0.20214   0.00000  Uiso   1.00
C281   C     0.02048   0.18899   0.09451   0.00000  Uiso   1.00
C282   C     0.20247   0.92624   0.24784   0.00000  Uiso   1.00
C283   C     0.24583   0.95472   0.26209   0.00000  Uiso   1.00
C284   C     0.27020   0.92918   0.16650   0.00000  Uiso   1.00
C285   C     0.32348   0.90571   0.03829   0.00000  Uiso   1.00
C286   C     0.15331   0.85420   0.37974   0.00000  Uiso   1.00
C287   C     0.15534   0.82210   0.50488   0.00000  Uiso   1.00
C288   C     0.13833   0.73590   0.52034   0.00000  Uiso   1.00
C289   C     0.11527   0.60058   0.59692   0.00000  Uiso   1.00
C290   C     0.13614   0.85042   0.14573   0.00000  Uiso   1.00
C291   C     0.11256   0.94095   0.15518   0.00000  Uiso   1.00
C292   C     0.07671   0.97159   0.07071   0.00000  Uiso   1.00
C293   C     0.05987   0.05633   0.09599   0.00000  Uiso   1.00
C294   C     0.18410   0.87408   0.14189   0.00000  Uiso   1.00
C295   C     0.20841   0.84848   0.04626   0.00000  Uiso   1.00
C296   C     0.25179   0.87693   0.06035   0.00000  Uiso   1.00
C297   C     0.13493   0.80204   0.27378   0.00000  Uiso   1.00
C298   C     0.11792   0.71587   0.28905   0.00000  Uiso   1.00
C299   C     0.11992   0.68365   0.41419   0.00000  Uiso   1.00
H300   H     0.18427   0.98705   0.42329   0.00000  Uiso   1.00
H301   H     0.12837   0.11817   0.36854   0.00000  Uiso   1.00
H302   H     0.26004   0.99508   0.34410   0.00000  Uiso   1.00
H303   H     0.16957   0.86248   0.58685   0.00000  Uiso   1.00
H304   H     0.05830   0.24055   0.26109   0.00000  Uiso   1.00
H305   H     0.33595   0.98098   0.20957   0.00000  Uiso   1.00
H306   H     0.14516   0.70137   0.72146   0.00000  Uiso   1.00
H307   H     0.12183   0.80981   0.06323   0.00000  Uiso   1.00
H308   H     0.06250   0.93121   0.98873   0.00000  Uiso   1.00
H309   H     0.19418   0.80812   0.96429   0.00000  Uiso   1.00
H310   H     0.10370   0.67552   0.20704   0.00000  Uiso   1.00
H311   H     0.00484   0.08881   0.95281   0.00000  Uiso   1.00
H312   H     0.28249   0.82924   0.90130   0.00000  Uiso   1.00
H313   H     0.09170   0.54963   0.41319   0.00000  Uiso   1.00
O314   O     0.99367   0.24775   0.06441   0.00000  Uiso   1.00
O315   O     0.35794   0.90719   0.99684   0.00000  Uiso   1.00
O316   O     0.10763   0.54035   0.66843   0.00000  Uiso   1.00
N317   N     0.05385   0.18817   0.19878   0.00000  Uiso   1.00
N318   N     0.31344   0.94550   0.15060   0.00000  Uiso   1.00
N319   N     0.13508   0.68408   0.62918   0.00000  Uiso   1.00
N320   N     0.02509   0.10652   0.03290   0.00000  Uiso   1.00
N321   N     0.28467   0.86385   0.98472   0.00000  Uiso   1.00
N322   N     0.10631   0.60243   0.46330   0.00000  Uiso   1.00
C323   C     0.66996   0.44645   0.34080   0.00000  Uiso   1.00
C324   C     0.63093   0.49311   0.26113   0.00000  Uiso   1.00
C325   C     0.61414   0.57782   0.28654   0.00000  Uiso   1.00
C326   C     0.57828   0.60859   0.20214   0.00000  Uiso   1.00
C327   C     0.52048   0.68899   0.09451   0.00000  Uiso   1.00
C328   C     0.70247   0.42624   0.24784   0.00000  Uiso   1.00
C329   C     0.74583   0.45472   0.26209   0.00000  Uiso   1.00
C330   C     0.77020   0.42918   0.16650   0.00000  Uiso   1.00
C331   C     0.82348   0.40571   0.03829   0.00000  Uiso   1.00
C332   C     0.65331   0.35420   0.37974   0.00000  Uiso   1.00
C333   C     0.65534   0.32210   0.50488   0.00000  Uiso   1.00
C334   C     0.63833   0.23590   0.52034   0.00000  Uiso   1.00
C335   C     0.61527   0.10058   0.59692   0.00000  Uiso   1.00
C336   C     0.63614   0.35042   0.14573   0.00000  Uiso   1.00
C337   C     0.61256   0.44095   0.15518   0.00000  Uiso   1.00
C338   C     0.57671   0.47159   0.07071   0.00000  Uiso   1.00
C339   C     0.55987   0.55633   0.09599   0.00000  Uiso   1.00
C340   C     0.68410   0.37408   0.14189   0.00000  Uiso   1.00
C341   C     0.70841   0.34848   0.04626   0.00000  Uiso   1.00
C342   C     0.75179   0.37693   0.06035   0.00000  Uiso   1.00
C343   C     0.63493   0.30204   0.27378   0.00000  Uiso   1.00
C344   C     0.61792   0.21587   0.28905   0.00000  Uiso   1.00
C345   C     0.61992   0.18365   0.41419   0.00000  Uiso   1.00
H346   H     0.68427   0.48705   0.42329   0.00000  Uiso   1.00
H347   H     0.62837   0.61817   0.36854   0.00000  Uiso   1.00
H348   H     0.76004   0.49508   0.34410   0.00000  Uiso   1.00
H349   H     0.66957   0.36248   0.58685   0.00000  Uiso   1.00
H350   H     0.55830   0.74055   0.26109   0.00000  Uiso   1.00
H351   H     0.83595   0.48098   0.20957   0.00000  Uiso   1.00
H352   H     0.64516   0.20137   0.72146   0.00000  Uiso   1.00
H353   H     0.62183   0.30981   0.06323   0.00000  Uiso   1.00
H354   H     0.56250   0.43121   0.98873   0.00000  Uiso   1.00
H355   H     0.69418   0.30812   0.96429   0.00000  Uiso   1.00
H356   H     0.60370   0.17552   0.20704   0.00000  Uiso   1.00
H357   H     0.50484   0.58881   0.95281   0.00000  Uiso   1.00
H358   H     0.78249   0.32924   0.90130   0.00000  Uiso   1.00
H359   H     0.59170   0.04963   0.41319   0.00000  Uiso   1.00
O360   O     0.49367   0.74775   0.06441   0.00000  Uiso   1.00
O361   O     0.85794   0.40719   0.99684   0.00000  Uiso   1.00
O362   O     0.60763   0.04035   0.66843   0.00000  Uiso   1.00
N363   N     0.55385   0.68817   0.19878   0.00000  Uiso   1.00
N364   N     0.81344   0.44550   0.15060   0.00000  Uiso   1.00
N365   N     0.63508   0.18408   0.62918   0.00000  Uiso   1.00
N366   N     0.52509   0.60652   0.03290   0.00000  Uiso   1.00
N367   N     0.78467   0.36385   0.98472   0.00000  Uiso   1.00
N368   N     0.60631   0.10243   0.46330   0.00000  Uiso   1.00
