data_job_03002
_audit_creation_date              2018-12-19
_audit_creation_method            'Materials Studio'
_symmetry_space_group_name_H-M    'P1'
_symmetry_Int_Tables_number       1
_symmetry_cell_setting            triclinic
loop_
_symmetry_equiv_pos_as_xyz
  x,y,z
_cell_length_a                    42.1249
_cell_length_b                    7.0951
_cell_length_c                    56.3312
_cell_angle_alpha                 90.0000
_cell_angle_beta                  148.3018
_cell_angle_gamma                 90.0000
loop_
_atom_site_label
_atom_site_type_symbol
_atom_site_fract_x
_atom_site_fract_y
_atom_site_fract_z
_atom_site_U_iso_or_equiv
_atom_site_adp_type
_atom_site_occupancy
C1     C     0.56958   0.89786   0.23482   0.00000  Uiso   1.00
C2     C     0.60509   0.83134   0.23578   0.00000  Uiso   1.00
C3     C     0.64724   0.93696   0.25013   0.00000  Uiso   1.00
C4     C     0.67482   0.85069   0.24839   0.00000  Uiso   1.00
C5     C     0.73208   0.77562   0.25222   0.00000  Uiso   1.00
C6     C     0.50305   0.87274   0.18621   0.00000  Uiso   1.00
C7     C     0.45941   0.01316   0.15889   0.00000  Uiso   1.00
C8     C     0.40109   0.96173   0.11542   0.00000  Uiso   1.00
C9     C     0.29993   0.95090   0.04231   0.00000  Uiso   1.00
C10    C     0.58279   0.75580   0.26287   0.00000  Uiso   1.00
C11    C     0.60619   0.79789   0.29998   0.00000  Uiso   1.00
C12    C     0.61499   0.64800   0.32105   0.00000  Uiso   1.00
C13    C     0.63763   0.45559   0.36695   0.00000  Uiso   1.00
C14    C     0.54360   0.55683   0.20622   0.00000  Uiso   1.00
C15    C     0.59097   0.64611   0.22024   0.00000  Uiso   1.00
C16    C     0.61850   0.55965   0.21849   0.00000  Uiso   1.00
C17    C     0.66069   0.66512   0.23283   0.00000  Uiso   1.00
C18    C     0.48893   0.68752   0.17068   0.00000  Uiso   1.00
C19    C     0.43067   0.63586   0.12724   0.00000  Uiso   1.00
C20    C     0.38695   0.77616   0.09986   0.00000  Uiso   1.00
C21    C     0.56868   0.57056   0.24733   0.00000  Uiso   1.00
C22    C     0.57744   0.42058   0.26834   0.00000  Uiso   1.00
C23    C     0.60085   0.46243   0.30549   0.00000  Uiso   1.00
H24    H     0.58056   0.04207   0.24691   0.00000  Uiso   1.00
H25    H     0.65815   0.08031   0.26215   0.00000  Uiso   1.00
H26    H     0.47035   0.15649   0.17092   0.00000  Uiso   1.00
H27    H     0.61710   0.94124   0.31200   0.00000  Uiso   1.00
H28    H     0.73793   0.04104   0.27217   0.00000  Uiso   1.00
H29    H     0.34193   0.20166   0.07982   0.00000  Uiso   1.00
H30    H     0.65139   0.74778   0.37730   0.00000  Uiso   1.00
H31    H     0.53261   0.41262   0.19412   0.00000  Uiso   1.00
H32    H     0.60757   0.41631   0.20646   0.00000  Uiso   1.00
H33    H     0.41976   0.49250   0.11523   0.00000  Uiso   1.00
H34    H     0.56651   0.27726   0.25631   0.00000  Uiso   1.00
H35    H     0.69687   0.50212   0.22697   0.00000  Uiso   1.00
H36    H     0.30087   0.66274   0.03462   0.00000  Uiso   1.00
H37    H     0.61033   0.20886   0.33210   0.00000  Uiso   1.00
O38    O     0.76756   0.78539   0.25862   0.00000  Uiso   1.00
O39    O     0.24803   0.99611   0.00628   0.00000  Uiso   1.00
O40    O     0.65403   0.40063   0.39657   0.00000  Uiso   1.00
N41    N     0.71799   0.91369   0.25985   0.00000  Uiso   1.00
N42    N     0.34776   0.06386   0.08001   0.00000  Uiso   1.00
N43    N     0.63706   0.63953   0.35812   0.00000  Uiso   1.00
N44    N     0.69589   0.62370   0.23553   0.00000  Uiso   1.00
N45    N     0.32566   0.77387   0.05569   0.00000  Uiso   1.00
N46    N     0.61497   0.34954   0.33380   0.00000  Uiso   1.00
C47    C     0.06958   0.39786   0.23482   0.00000  Uiso   1.00
C48    C     0.10509   0.33134   0.23578   0.00000  Uiso   1.00
C49    C     0.14724   0.43696   0.25013   0.00000  Uiso   1.00
C50    C     0.17482   0.35069   0.24839   0.00000  Uiso   1.00
C51    C     0.23208   0.27562   0.25222   0.00000  Uiso   1.00
C52    C     0.00305   0.37274   0.18621   0.00000  Uiso   1.00
C53    C     0.95941   0.51316   0.15889   0.00000  Uiso   1.00
C54    C     0.90109   0.46173   0.11542   0.00000  Uiso   1.00
C55    C     0.79993   0.45090   0.04231   0.00000  Uiso   1.00
C56    C     0.08279   0.25580   0.26287   0.00000  Uiso   1.00
C57    C     0.10619   0.29789   0.29998   0.00000  Uiso   1.00
C58    C     0.11499   0.14800   0.32105   0.00000  Uiso   1.00
C59    C     0.13763   0.95559   0.36695   0.00000  Uiso   1.00
C60    C     0.04360   0.05683   0.20622   0.00000  Uiso   1.00
C61    C     0.09097   0.14611   0.22024   0.00000  Uiso   1.00
C62    C     0.11850   0.05965   0.21849   0.00000  Uiso   1.00
C63    C     0.16069   0.16512   0.23283   0.00000  Uiso   1.00
C64    C     0.98893   0.18752   0.17068   0.00000  Uiso   1.00
C65    C     0.93067   0.13586   0.12724   0.00000  Uiso   1.00
C66    C     0.88695   0.27616   0.09986   0.00000  Uiso   1.00
C67    C     0.06868   0.07056   0.24733   0.00000  Uiso   1.00
C68    C     0.07744   0.92058   0.26834   0.00000  Uiso   1.00
C69    C     0.10085   0.96243   0.30549   0.00000  Uiso   1.00
H70    H     0.08056   0.54207   0.24691   0.00000  Uiso   1.00
H71    H     0.15815   0.58031   0.26215   0.00000  Uiso   1.00
H72    H     0.97035   0.65649   0.17092   0.00000  Uiso   1.00
H73    H     0.11710   0.44124   0.31200   0.00000  Uiso   1.00
H74    H     0.23793   0.54104   0.27217   0.00000  Uiso   1.00
H75    H     0.84193   0.70166   0.07982   0.00000  Uiso   1.00
H76    H     0.15139   0.24778   0.37730   0.00000  Uiso   1.00
H77    H     0.03261   0.91262   0.19412   0.00000  Uiso   1.00
H78    H     0.10757   0.91631   0.20646   0.00000  Uiso   1.00
H79    H     0.91976   0.99250   0.11523   0.00000  Uiso   1.00
H80    H     0.06651   0.77726   0.25631   0.00000  Uiso   1.00
H81    H     0.19687   0.00212   0.22697   0.00000  Uiso   1.00
H82    H     0.80087   0.16274   0.03462   0.00000  Uiso   1.00
H83    H     0.11033   0.70886   0.33210   0.00000  Uiso   1.00
O84    O     0.26756   0.28539   0.25862   0.00000  Uiso   1.00
O85    O     0.74803   0.49611   0.00628   0.00000  Uiso   1.00
O86    O     0.15403   0.90063   0.39657   0.00000  Uiso   1.00
N87    N     0.21799   0.41369   0.25985   0.00000  Uiso   1.00
N88    N     0.84776   0.56386   0.08001   0.00000  Uiso   1.00
N89    N     0.13706   0.13953   0.35812   0.00000  Uiso   1.00
N90    N     0.19589   0.12370   0.23553   0.00000  Uiso   1.00
N91    N     0.82566   0.27387   0.05569   0.00000  Uiso   1.00
N92    N     0.11497   0.84954   0.33380   0.00000  Uiso   1.00
C93    C     0.43042   0.89786   0.26518   0.00000  Uiso   1.00
C94    C     0.39491   0.83134   0.26422   0.00000  Uiso   1.00
C95    C     0.35276   0.93696   0.24987   0.00000  Uiso   1.00
C96    C     0.32518   0.85069   0.25161   0.00000  Uiso   1.00
C97    C     0.26792   0.77562   0.24778   0.00000  Uiso   1.00
C98    C     0.49695   0.87274   0.31379   0.00000  Uiso   1.00
C99    C     0.54059   0.01316   0.34111   0.00000  Uiso   1.00
C100   C     0.59891   0.96173   0.38458   0.00000  Uiso   1.00
C101   C     0.70007   0.95090   0.45769   0.00000  Uiso   1.00
C102   C     0.41721   0.75580   0.23713   0.00000  Uiso   1.00
C103   C     0.39381   0.79789   0.20002   0.00000  Uiso   1.00
C104   C     0.38501   0.64800   0.17895   0.00000  Uiso   1.00
C105   C     0.36237   0.45559   0.13305   0.00000  Uiso   1.00
C106   C     0.45640   0.55683   0.29378   0.00000  Uiso   1.00
C107   C     0.40903   0.64611   0.27976   0.00000  Uiso   1.00
C108   C     0.38150   0.55965   0.28151   0.00000  Uiso   1.00
C109   C     0.33931   0.66512   0.26717   0.00000  Uiso   1.00
C110   C     0.51107   0.68752   0.32932   0.00000  Uiso   1.00
C111   C     0.56933   0.63586   0.37276   0.00000  Uiso   1.00
C112   C     0.61305   0.77616   0.40014   0.00000  Uiso   1.00
C113   C     0.43132   0.57056   0.25267   0.00000  Uiso   1.00
C114   C     0.42256   0.42058   0.23166   0.00000  Uiso   1.00
C115   C     0.39915   0.46243   0.19451   0.00000  Uiso   1.00
H116   H     0.41944   0.04207   0.25309   0.00000  Uiso   1.00
H117   H     0.34185   0.08031   0.23785   0.00000  Uiso   1.00
H118   H     0.52965   0.15649   0.32908   0.00000  Uiso   1.00
H119   H     0.38290   0.94124   0.18800   0.00000  Uiso   1.00
H120   H     0.26207   0.04104   0.22783   0.00000  Uiso   1.00
H121   H     0.65807   0.20166   0.42018   0.00000  Uiso   1.00
H122   H     0.34861   0.74778   0.12270   0.00000  Uiso   1.00
H123   H     0.46739   0.41262   0.30588   0.00000  Uiso   1.00
H124   H     0.39243   0.41631   0.29354   0.00000  Uiso   1.00
H125   H     0.58024   0.49250   0.38477   0.00000  Uiso   1.00
H126   H     0.43349   0.27726   0.24369   0.00000  Uiso   1.00
H127   H     0.30313   0.50212   0.27303   0.00000  Uiso   1.00
H128   H     0.69913   0.66274   0.46538   0.00000  Uiso   1.00
H129   H     0.38967   0.20886   0.16790   0.00000  Uiso   1.00
O130   O     0.23244   0.78539   0.24138   0.00000  Uiso   1.00
O131   O     0.75197   0.99611   0.49372   0.00000  Uiso   1.00
O132   O     0.34597   0.40063   0.10343   0.00000  Uiso   1.00
N133   N     0.28201   0.91369   0.24015   0.00000  Uiso   1.00
N134   N     0.65224   0.06386   0.41999   0.00000  Uiso   1.00
N135   N     0.36294   0.63953   0.14188   0.00000  Uiso   1.00
N136   N     0.30411   0.62370   0.26447   0.00000  Uiso   1.00
N137   N     0.67434   0.77387   0.44431   0.00000  Uiso   1.00
N138   N     0.38503   0.34954   0.16620   0.00000  Uiso   1.00
C139   C     0.93042   0.39786   0.26518   0.00000  Uiso   1.00
C140   C     0.89491   0.33134   0.26422   0.00000  Uiso   1.00
C141   C     0.85276   0.43696   0.24987   0.00000  Uiso   1.00
C142   C     0.82518   0.35069   0.25161   0.00000  Uiso   1.00
C143   C     0.76792   0.27562   0.24778   0.00000  Uiso   1.00
C144   C     0.99695   0.37274   0.31379   0.00000  Uiso   1.00
C145   C     0.04059   0.51316   0.34111   0.00000  Uiso   1.00
C146   C     0.09891   0.46173   0.38458   0.00000  Uiso   1.00
C147   C     0.20007   0.45090   0.45769   0.00000  Uiso   1.00
C148   C     0.91721   0.25580   0.23713   0.00000  Uiso   1.00
C149   C     0.89381   0.29789   0.20002   0.00000  Uiso   1.00
C150   C     0.88501   0.14800   0.17895   0.00000  Uiso   1.00
C151   C     0.86237   0.95559   0.13305   0.00000  Uiso   1.00
C152   C     0.95640   0.05683   0.29378   0.00000  Uiso   1.00
C153   C     0.90903   0.14611   0.27976   0.00000  Uiso   1.00
C154   C     0.88150   0.05965   0.28151   0.00000  Uiso   1.00
C155   C     0.83931   0.16512   0.26717   0.00000  Uiso   1.00
C156   C     0.01107   0.18752   0.32932   0.00000  Uiso   1.00
C157   C     0.06933   0.13586   0.37276   0.00000  Uiso   1.00
C158   C     0.11305   0.27616   0.40014   0.00000  Uiso   1.00
C159   C     0.93132   0.07056   0.25267   0.00000  Uiso   1.00
C160   C     0.92256   0.92058   0.23166   0.00000  Uiso   1.00
C161   C     0.89915   0.96243   0.19451   0.00000  Uiso   1.00
H162   H     0.91944   0.54207   0.25309   0.00000  Uiso   1.00
H163   H     0.84185   0.58031   0.23785   0.00000  Uiso   1.00
H164   H     0.02965   0.65649   0.32908   0.00000  Uiso   1.00
H165   H     0.88290   0.44124   0.18800   0.00000  Uiso   1.00
H166   H     0.76207   0.54104   0.22783   0.00000  Uiso   1.00
H167   H     0.15807   0.70166   0.42018   0.00000  Uiso   1.00
H168   H     0.84861   0.24778   0.12270   0.00000  Uiso   1.00
H169   H     0.96739   0.91262   0.30588   0.00000  Uiso   1.00
H170   H     0.89243   0.91631   0.29354   0.00000  Uiso   1.00
H171   H     0.08024   0.99250   0.38477   0.00000  Uiso   1.00
H172   H     0.93349   0.77726   0.24369   0.00000  Uiso   1.00
H173   H     0.80313   0.00212   0.27303   0.00000  Uiso   1.00
H174   H     0.19913   0.16274   0.46538   0.00000  Uiso   1.00
H175   H     0.88967   0.70886   0.16790   0.00000  Uiso   1.00
O176   O     0.73244   0.28539   0.24138   0.00000  Uiso   1.00
O177   O     0.25197   0.49611   0.49372   0.00000  Uiso   1.00
O178   O     0.84597   0.90063   0.10343   0.00000  Uiso   1.00
N179   N     0.78201   0.41369   0.24015   0.00000  Uiso   1.00
N180   N     0.15224   0.56386   0.41999   0.00000  Uiso   1.00
N181   N     0.86294   0.13953   0.14188   0.00000  Uiso   1.00
N182   N     0.80411   0.12370   0.26447   0.00000  Uiso   1.00
N183   N     0.17434   0.27387   0.44431   0.00000  Uiso   1.00
N184   N     0.88503   0.84954   0.16620   0.00000  Uiso   1.00
C185   C     0.43042   0.10214   0.76518   0.00000  Uiso   1.00
C186   C     0.39491   0.16866   0.76422   0.00000  Uiso   1.00
C187   C     0.35276   0.06304   0.74987   0.00000  Uiso   1.00
C188   C     0.32518   0.14931   0.75161   0.00000  Uiso   1.00
C189   C     0.26792   0.22438   0.74778   0.00000  Uiso   1.00
C190   C     0.49695   0.12726   0.81379   0.00000  Uiso   1.00
C191   C     0.54059   0.98684   0.84111   0.00000  Uiso   1.00
C192   C     0.59891   0.03827   0.88458   0.00000  Uiso   1.00
C193   C     0.70007   0.04910   0.95769   0.00000  Uiso   1.00
C194   C     0.41721   0.24420   0.73713   0.00000  Uiso   1.00
C195   C     0.39381   0.20211   0.70002   0.00000  Uiso   1.00
C196   C     0.38501   0.35200   0.67895   0.00000  Uiso   1.00
C197   C     0.36237   0.54441   0.63305   0.00000  Uiso   1.00
C198   C     0.45640   0.44317   0.79378   0.00000  Uiso   1.00
C199   C     0.40903   0.35389   0.77976   0.00000  Uiso   1.00
C200   C     0.38150   0.44035   0.78151   0.00000  Uiso   1.00
C201   C     0.33931   0.33488   0.76717   0.00000  Uiso   1.00
C202   C     0.51107   0.31248   0.82932   0.00000  Uiso   1.00
C203   C     0.56933   0.36414   0.87276   0.00000  Uiso   1.00
C204   C     0.61305   0.22384   0.90014   0.00000  Uiso   1.00
C205   C     0.43132   0.42944   0.75267   0.00000  Uiso   1.00
C206   C     0.42256   0.57942   0.73166   0.00000  Uiso   1.00
C207   C     0.39915   0.53757   0.69451   0.00000  Uiso   1.00
H208   H     0.41944   0.95793   0.75309   0.00000  Uiso   1.00
H209   H     0.34185   0.91969   0.73785   0.00000  Uiso   1.00
H210   H     0.52965   0.84351   0.82908   0.00000  Uiso   1.00
H211   H     0.38290   0.05876   0.68800   0.00000  Uiso   1.00
H212   H     0.26207   0.95896   0.72783   0.00000  Uiso   1.00
H213   H     0.65807   0.79834   0.92018   0.00000  Uiso   1.00
H214   H     0.34861   0.25222   0.62270   0.00000  Uiso   1.00
H215   H     0.46739   0.58738   0.80588   0.00000  Uiso   1.00
H216   H     0.39243   0.58369   0.79354   0.00000  Uiso   1.00
H217   H     0.58024   0.50750   0.88477   0.00000  Uiso   1.00
H218   H     0.43349   0.72274   0.74369   0.00000  Uiso   1.00
H219   H     0.30313   0.49788   0.77303   0.00000  Uiso   1.00
H220   H     0.69913   0.33726   0.96538   0.00000  Uiso   1.00
H221   H     0.38967   0.79114   0.66790   0.00000  Uiso   1.00
O222   O     0.23244   0.21461   0.74138   0.00000  Uiso   1.00
O223   O     0.75197   0.00389   0.99372   0.00000  Uiso   1.00
O224   O     0.34597   0.59937   0.60343   0.00000  Uiso   1.00
N225   N     0.28201   0.08631   0.74015   0.00000  Uiso   1.00
N226   N     0.65224   0.93614   0.91999   0.00000  Uiso   1.00
N227   N     0.36294   0.36047   0.64188   0.00000  Uiso   1.00
N228   N     0.30411   0.37630   0.76447   0.00000  Uiso   1.00
N229   N     0.67434   0.22613   0.94431   0.00000  Uiso   1.00
N230   N     0.38503   0.65046   0.66620   0.00000  Uiso   1.00
C231   C     0.93042   0.60214   0.76518   0.00000  Uiso   1.00
C232   C     0.89491   0.66866   0.76422   0.00000  Uiso   1.00
C233   C     0.85276   0.56304   0.74987   0.00000  Uiso   1.00
C234   C     0.82518   0.64931   0.75161   0.00000  Uiso   1.00
C235   C     0.76792   0.72438   0.74778   0.00000  Uiso   1.00
C236   C     0.99695   0.62726   0.81379   0.00000  Uiso   1.00
C237   C     0.04059   0.48684   0.84111   0.00000  Uiso   1.00
C238   C     0.09891   0.53827   0.88458   0.00000  Uiso   1.00
C239   C     0.20007   0.54910   0.95769   0.00000  Uiso   1.00
C240   C     0.91721   0.74420   0.73713   0.00000  Uiso   1.00
C241   C     0.89381   0.70211   0.70002   0.00000  Uiso   1.00
C242   C     0.88501   0.85200   0.67895   0.00000  Uiso   1.00
C243   C     0.86237   0.04441   0.63305   0.00000  Uiso   1.00
C244   C     0.95640   0.94317   0.79378   0.00000  Uiso   1.00
C245   C     0.90903   0.85389   0.77976   0.00000  Uiso   1.00
C246   C     0.88150   0.94035   0.78151   0.00000  Uiso   1.00
C247   C     0.83931   0.83488   0.76717   0.00000  Uiso   1.00
C248   C     0.01107   0.81248   0.82932   0.00000  Uiso   1.00
C249   C     0.06933   0.86414   0.87276   0.00000  Uiso   1.00
C250   C     0.11305   0.72384   0.90014   0.00000  Uiso   1.00
C251   C     0.93132   0.92944   0.75267   0.00000  Uiso   1.00
C252   C     0.92256   0.07942   0.73166   0.00000  Uiso   1.00
C253   C     0.89915   0.03757   0.69451   0.00000  Uiso   1.00
H254   H     0.91944   0.45793   0.75309   0.00000  Uiso   1.00
H255   H     0.84185   0.41969   0.73785   0.00000  Uiso   1.00
H256   H     0.02965   0.34351   0.82908   0.00000  Uiso   1.00
H257   H     0.88290   0.55876   0.68800   0.00000  Uiso   1.00
H258   H     0.76207   0.45896   0.72783   0.00000  Uiso   1.00
H259   H     0.15807   0.29834   0.92018   0.00000  Uiso   1.00
H260   H     0.84861   0.75222   0.62270   0.00000  Uiso   1.00
H261   H     0.96739   0.08738   0.80588   0.00000  Uiso   1.00
H262   H     0.89243   0.08369   0.79354   0.00000  Uiso   1.00
H263   H     0.08024   0.00750   0.88477   0.00000  Uiso   1.00
H264   H     0.93349   0.22274   0.74369   0.00000  Uiso   1.00
H265   H     0.80313   0.99788   0.77303   0.00000  Uiso   1.00
H266   H     0.19913   0.83726   0.96538   0.00000  Uiso   1.00
H267   H     0.88967   0.29114   0.66790   0.00000  Uiso   1.00
O268   O     0.73244   0.71461   0.74138   0.00000  Uiso   1.00
O269   O     0.25197   0.50389   0.99372   0.00000  Uiso   1.00
O270   O     0.84597   0.09937   0.60343   0.00000  Uiso   1.00
N271   N     0.78201   0.58631   0.74015   0.00000  Uiso   1.00
N272   N     0.15224   0.43614   0.91999   0.00000  Uiso   1.00
N273   N     0.86294   0.86047   0.64188   0.00000  Uiso   1.00
N274   N     0.80411   0.87630   0.76447   0.00000  Uiso   1.00
N275   N     0.17434   0.72613   0.94431   0.00000  Uiso   1.00
N276   N     0.88503   0.15046   0.66620   0.00000  Uiso   1.00
C277   C     0.56958   0.10214   0.73482   0.00000  Uiso   1.00
C278   C     0.60509   0.16866   0.73578   0.00000  Uiso   1.00
C279   C     0.64724   0.06304   0.75013   0.00000  Uiso   1.00
C280   C     0.67482   0.14931   0.74839   0.00000  Uiso   1.00
C281   C     0.73208   0.22438   0.75222   0.00000  Uiso   1.00
C282   C     0.50305   0.12726   0.68621   0.00000  Uiso   1.00
C283   C     0.45941   0.98684   0.65889   0.00000  Uiso   1.00
C284   C     0.40109   0.03827   0.61542   0.00000  Uiso   1.00
C285   C     0.29993   0.04910   0.54231   0.00000  Uiso   1.00
C286   C     0.58279   0.24420   0.76287   0.00000  Uiso   1.00
C287   C     0.60619   0.20211   0.79998   0.00000  Uiso   1.00
C288   C     0.61499   0.35200   0.82105   0.00000  Uiso   1.00
C289   C     0.63763   0.54441   0.86695   0.00000  Uiso   1.00
C290   C     0.54360   0.44317   0.70622   0.00000  Uiso   1.00
C291   C     0.59097   0.35389   0.72024   0.00000  Uiso   1.00
C292   C     0.61850   0.44035   0.71849   0.00000  Uiso   1.00
C293   C     0.66069   0.33488   0.73283   0.00000  Uiso   1.00
C294   C     0.48893   0.31248   0.67068   0.00000  Uiso   1.00
C295   C     0.43067   0.36414   0.62724   0.00000  Uiso   1.00
C296   C     0.38695   0.22384   0.59986   0.00000  Uiso   1.00
C297   C     0.56868   0.42944   0.74733   0.00000  Uiso   1.00
C298   C     0.57744   0.57942   0.76834   0.00000  Uiso   1.00
C299   C     0.60085   0.53757   0.80549   0.00000  Uiso   1.00
H300   H     0.58056   0.95793   0.74691   0.00000  Uiso   1.00
H301   H     0.65815   0.91969   0.76215   0.00000  Uiso   1.00
H302   H     0.47035   0.84351   0.67092   0.00000  Uiso   1.00
H303   H     0.61710   0.05876   0.81200   0.00000  Uiso   1.00
H304   H     0.73793   0.95896   0.77217   0.00000  Uiso   1.00
H305   H     0.34193   0.79834   0.57982   0.00000  Uiso   1.00
H306   H     0.65139   0.25222   0.87730   0.00000  Uiso   1.00
H307   H     0.53261   0.58738   0.69412   0.00000  Uiso   1.00
H308   H     0.60757   0.58369   0.70646   0.00000  Uiso   1.00
H309   H     0.41976   0.50750   0.61523   0.00000  Uiso   1.00
H310   H     0.56651   0.72274   0.75631   0.00000  Uiso   1.00
H311   H     0.69687   0.49788   0.72697   0.00000  Uiso   1.00
H312   H     0.30087   0.33726   0.53462   0.00000  Uiso   1.00
H313   H     0.61033   0.79114   0.83210   0.00000  Uiso   1.00
O314   O     0.76756   0.21461   0.75862   0.00000  Uiso   1.00
O315   O     0.24803   0.00389   0.50628   0.00000  Uiso   1.00
O316   O     0.65403   0.59937   0.89657   0.00000  Uiso   1.00
N317   N     0.71799   0.08631   0.75985   0.00000  Uiso   1.00
N318   N     0.34776   0.93614   0.58001   0.00000  Uiso   1.00
N319   N     0.63706   0.36047   0.85812   0.00000  Uiso   1.00
N320   N     0.69589   0.37630   0.73553   0.00000  Uiso   1.00
N321   N     0.32566   0.22613   0.55569   0.00000  Uiso   1.00
N322   N     0.61497   0.65046   0.83380   0.00000  Uiso   1.00
C323   C     0.06958   0.60214   0.73482   0.00000  Uiso   1.00
C324   C     0.10509   0.66866   0.73578   0.00000  Uiso   1.00
C325   C     0.14724   0.56304   0.75013   0.00000  Uiso   1.00
C326   C     0.17482   0.64931   0.74839   0.00000  Uiso   1.00
C327   C     0.23208   0.72438   0.75222   0.00000  Uiso   1.00
C328   C     0.00305   0.62726   0.68621   0.00000  Uiso   1.00
C329   C     0.95941   0.48684   0.65889   0.00000  Uiso   1.00
C330   C     0.90109   0.53827   0.61542   0.00000  Uiso   1.00
C331   C     0.79993   0.54910   0.54231   0.00000  Uiso   1.00
C332   C     0.08279   0.74420   0.76287   0.00000  Uiso   1.00
C333   C     0.10619   0.70211   0.79998   0.00000  Uiso   1.00
C334   C     0.11499   0.85200   0.82105   0.00000  Uiso   1.00
C335   C     0.13763   0.04441   0.86695   0.00000  Uiso   1.00
C336   C     0.04360   0.94317   0.70622   0.00000  Uiso   1.00
C337   C     0.09097   0.85389   0.72024   0.00000  Uiso   1.00
C338   C     0.11850   0.94035   0.71849   0.00000  Uiso   1.00
C339   C     0.16069   0.83488   0.73283   0.00000  Uiso   1.00
C340   C     0.98893   0.81248   0.67068   0.00000  Uiso   1.00
C341   C     0.93067   0.86414   0.62724   0.00000  Uiso   1.00
C342   C     0.88695   0.72384   0.59986   0.00000  Uiso   1.00
C343   C     0.06868   0.92944   0.74733   0.00000  Uiso   1.00
C344   C     0.07744   0.07942   0.76834   0.00000  Uiso   1.00
C345   C     0.10085   0.03757   0.80549   0.00000  Uiso   1.00
H346   H     0.08056   0.45793   0.74691   0.00000  Uiso   1.00
H347   H     0.15815   0.41969   0.76215   0.00000  Uiso   1.00
H348   H     0.97035   0.34351   0.67092   0.00000  Uiso   1.00
H349   H     0.11710   0.55876   0.81200   0.00000  Uiso   1.00
H350   H     0.23793   0.45896   0.77217   0.00000  Uiso   1.00
H351   H     0.84193   0.29834   0.57982   0.00000  Uiso   1.00
H352   H     0.15139   0.75222   0.87730   0.00000  Uiso   1.00
H353   H     0.03261   0.08738   0.69412   0.00000  Uiso   1.00
H354   H     0.10757   0.08369   0.70646   0.00000  Uiso   1.00
H355   H     0.91976   0.00750   0.61523   0.00000  Uiso   1.00
H356   H     0.06651   0.22274   0.75631   0.00000  Uiso   1.00
H357   H     0.19687   0.99788   0.72697   0.00000  Uiso   1.00
H358   H     0.80087   0.83726   0.53462   0.00000  Uiso   1.00
H359   H     0.11033   0.29114   0.83210   0.00000  Uiso   1.00
O360   O     0.26756   0.71461   0.75862   0.00000  Uiso   1.00
O361   O     0.74803   0.50389   0.50628   0.00000  Uiso   1.00
O362   O     0.15403   0.09937   0.89657   0.00000  Uiso   1.00
N363   N     0.21799   0.58631   0.75985   0.00000  Uiso   1.00
N364   N     0.84776   0.43614   0.58001   0.00000  Uiso   1.00
N365   N     0.13706   0.86047   0.85812   0.00000  Uiso   1.00
N366   N     0.19589   0.87630   0.73553   0.00000  Uiso   1.00
N367   N     0.82566   0.72613   0.55569   0.00000  Uiso   1.00
N368   N     0.11497   0.15046   0.83380   0.00000  Uiso   1.00
