data_job_00397
_audit_creation_date              2018-12-19
_audit_creation_method            'Materials Studio'
_symmetry_space_group_name_H-M    'P1'
_symmetry_Int_Tables_number       1
_symmetry_cell_setting            triclinic
loop_
_symmetry_equiv_pos_as_xyz
  x,y,z
_cell_length_a                    11.5394
_cell_length_b                    11.5410
_cell_length_c                    12.2106
_cell_angle_alpha                 66.7477
_cell_angle_beta                  85.4341
_cell_angle_gamma                 67.6603
loop_
_atom_site_label
_atom_site_type_symbol
_atom_site_fract_x
_atom_site_fract_y
_atom_site_fract_z
_atom_site_U_iso_or_equiv
_atom_site_adp_type
_atom_site_occupancy
C1     C     0.11305   0.11192   0.19340   0.00000  Uiso   1.00
C2     C     0.11807   0.16175   0.29082   0.00000  Uiso   1.00
C3     C     0.01543   0.22308   0.34387   0.00000  Uiso   1.00
C4     C     0.03968   0.26142   0.43128   0.00000  Uiso   1.00
C5     C     0.02882   0.34224   0.57747   0.00000  Uiso   1.00
C6     C     0.17629   0.18447   0.08932   0.00000  Uiso   1.00
C7     C     0.12260   0.26488   0.97294   0.00000  Uiso   1.00
C8     C     0.19588   0.32231   0.89072   0.00000  Uiso   1.00
C9     C     0.27544   0.43832   0.72406   0.00000  Uiso   1.00
C10    C     0.19939   0.96147   0.24180   0.00000  Uiso   1.00
C11    C     0.16515   0.85438   0.25360   0.00000  Uiso   1.00
C12    C     0.25788   0.72407   0.29973   0.00000  Uiso   1.00
C13    C     0.37332   0.49385   0.36981   0.00000  Uiso   1.00
C14    C     0.33864   0.07094   0.25430   0.00000  Uiso   1.00
C15    C     0.24060   0.13950   0.32390   0.00000  Uiso   1.00
C16    C     0.26501   0.17774   0.41125   0.00000  Uiso   1.00
C17    C     0.16243   0.23911   0.46442   0.00000  Uiso   1.00
C18    C     0.29881   0.16221   0.12239   0.00000  Uiso   1.00
C19    C     0.37219   0.21953   0.04032   0.00000  Uiso   1.00
C20    C     0.31863   0.30002   0.92386   0.00000  Uiso   1.00
C21    C     0.32192   0.93921   0.27488   0.00000  Uiso   1.00
C22    C     0.41473   0.80904   0.32099   0.00000  Uiso   1.00
C23    C     0.38064   0.70177   0.33287   0.00000  Uiso   1.00
H24    H     0.01766   0.12926   0.16764   0.00000  Uiso   1.00
H25    H     0.92061   0.24030   0.31824   0.00000  Uiso   1.00
H26    H     0.02778   0.28208   0.94737   0.00000  Uiso   1.00
H27    H     0.07032   0.87165   0.22799   0.00000  Uiso   1.00
H28    H     0.86706   0.35365   0.49976   0.00000  Uiso   1.00
H29    H     0.09304   0.44169   0.71775   0.00000  Uiso   1.00
H30    H     0.18273   0.57622   0.30949   0.00000  Uiso   1.00
H31    H     0.43404   0.05361   0.28006   0.00000  Uiso   1.00
H32    H     0.35984   0.16050   0.43683   0.00000  Uiso   1.00
H33    H     0.46701   0.20228   0.06596   0.00000  Uiso   1.00
H34    H     0.50954   0.79185   0.34658   0.00000  Uiso   1.00
H35    H     0.22355   0.28888   0.59600   0.00000  Uiso   1.00
H36    H     0.44953   0.37692   0.81400   0.00000  Uiso   1.00
H37    H     0.53923   0.51146   0.40574   0.00000  Uiso   1.00
O38    O     0.98898   0.39299   0.64895   0.00000  Uiso   1.00
O39    O     0.28546   0.50847   0.62299   0.00000  Uiso   1.00
O40    O     0.40314   0.37300   0.39934   0.00000  Uiso   1.00
N41    N     0.96114   0.32371   0.50091   0.00000  Uiso   1.00
N42    N     0.17241   0.40604   0.76979   0.00000  Uiso   1.00
N43    N     0.25628   0.59691   0.32298   0.00000  Uiso   1.00
N44    N     0.15297   0.28886   0.55270   0.00000  Uiso   1.00
N45    N     0.36424   0.37119   0.82158   0.00000  Uiso   1.00
N46    N     0.44811   0.56205   0.37478   0.00000  Uiso   1.00
C47    C     0.88695   0.88808   0.80660   0.00000  Uiso   1.00
C48    C     0.88193   0.83825   0.70918   0.00000  Uiso   1.00
C49    C     0.98457   0.77692   0.65613   0.00000  Uiso   1.00
C50    C     0.96032   0.73858   0.56872   0.00000  Uiso   1.00
C51    C     0.97118   0.65776   0.42253   0.00000  Uiso   1.00
C52    C     0.82371   0.81553   0.91068   0.00000  Uiso   1.00
C53    C     0.87740   0.73512   0.02706   0.00000  Uiso   1.00
C54    C     0.80412   0.67769   0.10928   0.00000  Uiso   1.00
C55    C     0.72456   0.56168   0.27594   0.00000  Uiso   1.00
C56    C     0.80061   0.03853   0.75820   0.00000  Uiso   1.00
C57    C     0.83485   0.14562   0.74640   0.00000  Uiso   1.00
C58    C     0.74212   0.27593   0.70027   0.00000  Uiso   1.00
C59    C     0.62668   0.50615   0.63019   0.00000  Uiso   1.00
C60    C     0.66136   0.92906   0.74570   0.00000  Uiso   1.00
C61    C     0.75940   0.86050   0.67610   0.00000  Uiso   1.00
C62    C     0.73499   0.82226   0.58875   0.00000  Uiso   1.00
C63    C     0.83757   0.76089   0.53558   0.00000  Uiso   1.00
C64    C     0.70119   0.83779   0.87761   0.00000  Uiso   1.00
C65    C     0.62781   0.78047   0.95968   0.00000  Uiso   1.00
C66    C     0.68137   0.69998   0.07614   0.00000  Uiso   1.00
C67    C     0.67808   0.06079   0.72512   0.00000  Uiso   1.00
C68    C     0.58527   0.19096   0.67901   0.00000  Uiso   1.00
C69    C     0.61936   0.29823   0.66713   0.00000  Uiso   1.00
H70    H     0.98234   0.87074   0.83236   0.00000  Uiso   1.00
H71    H     0.07939   0.75970   0.68176   0.00000  Uiso   1.00
H72    H     0.97222   0.71792   0.05263   0.00000  Uiso   1.00
H73    H     0.92968   0.12835   0.77201   0.00000  Uiso   1.00
H74    H     0.13294   0.64635   0.50024   0.00000  Uiso   1.00
H75    H     0.90696   0.55831   0.28225   0.00000  Uiso   1.00
H76    H     0.81727   0.42378   0.69051   0.00000  Uiso   1.00
H77    H     0.56596   0.94639   0.71994   0.00000  Uiso   1.00
H78    H     0.64016   0.83950   0.56317   0.00000  Uiso   1.00
H79    H     0.53299   0.79772   0.93404   0.00000  Uiso   1.00
H80    H     0.49046   0.20815   0.65342   0.00000  Uiso   1.00
H81    H     0.77645   0.71112   0.40400   0.00000  Uiso   1.00
H82    H     0.55047   0.62308   0.18600   0.00000  Uiso   1.00
H83    H     0.46077   0.48854   0.59426   0.00000  Uiso   1.00
O84    O     0.01102   0.60701   0.35105   0.00000  Uiso   1.00
O85    O     0.71454   0.49153   0.37701   0.00000  Uiso   1.00
O86    O     0.59686   0.62700   0.60066   0.00000  Uiso   1.00
N87    N     0.03886   0.67629   0.49909   0.00000  Uiso   1.00
N88    N     0.82759   0.59396   0.23021   0.00000  Uiso   1.00
N89    N     0.74372   0.40309   0.67702   0.00000  Uiso   1.00
N90    N     0.84703   0.71114   0.44730   0.00000  Uiso   1.00
N91    N     0.63576   0.62881   0.17842   0.00000  Uiso   1.00
N92    N     0.55189   0.43795   0.62522   0.00000  Uiso   1.00
