data_job_00618
_audit_creation_date              2018-12-19
_audit_creation_method            'Materials Studio'
_symmetry_space_group_name_H-M    'P1'
_symmetry_Int_Tables_number       1
_symmetry_cell_setting            triclinic
loop_
_symmetry_equiv_pos_as_xyz
  x,y,z
_cell_length_a                    12.4560
_cell_length_b                    12.4560
_cell_length_c                    15.6925
_cell_angle_alpha                 90.0000
_cell_angle_beta                  90.0000
_cell_angle_gamma                 90.0000
loop_
_atom_site_label
_atom_site_type_symbol
_atom_site_fract_x
_atom_site_fract_y
_atom_site_fract_z
_atom_site_U_iso_or_equiv
_atom_site_adp_type
_atom_site_occupancy
C1     C     0.39136   0.76146   0.83523   0.00000  Uiso   1.00
C2     C     0.30861   0.84531   0.86167   0.00000  Uiso   1.00
C3     C     0.21253   0.82464   0.90332   0.00000  Uiso   1.00
C4     C     0.14782   0.91232   0.92193   0.00000  Uiso   1.00
C5     C     0.01469   0.02660   0.96635   0.00000  Uiso   1.00
C6     C     0.40695   0.77541   0.73948   0.00000  Uiso   1.00
C7     C     0.39356   0.69596   0.67839   0.00000  Uiso   1.00
C8     C     0.41166   0.72480   0.59414   0.00000  Uiso   1.00
C9     C     0.43128   0.73055   0.44885   0.00000  Uiso   1.00
C10    C     0.49686   0.79555   0.87642   0.00000  Uiso   1.00
C11    C     0.55909   0.73304   0.93045   0.00000  Uiso   1.00
C12    C     0.65290   0.77883   0.96148   0.00000  Uiso   1.00
C13    C     0.81211   0.81586   0.02882   0.00000  Uiso   1.00
C14    C     0.44733   0.95393   0.79423   0.00000  Uiso   1.00
C15    C     0.33902   0.94985   0.83940   0.00000  Uiso   1.00
C16    C     0.27445   0.03759   0.85796   0.00000  Uiso   1.00
C17    C     0.17828   0.01705   0.89963   0.00000  Uiso   1.00
C18    C     0.43735   0.87995   0.71721   0.00000  Uiso   1.00
C19    C     0.45548   0.90891   0.63303   0.00000  Uiso   1.00
C20    C     0.44211   0.82953   0.57183   0.00000  Uiso   1.00
C21    C     0.52726   0.90010   0.85415   0.00000  Uiso   1.00
C22    C     0.62100   0.94599   0.88510   0.00000  Uiso   1.00
C23    C     0.68335   0.88356   0.93917   0.00000  Uiso   1.00
H24    H     0.36770   0.68006   0.85256   0.00000  Uiso   1.00
H25    H     0.18902   0.74372   0.92053   0.00000  Uiso   1.00
H26    H     0.37005   0.61506   0.69564   0.00000  Uiso   1.00
H27    H     0.53554   0.65214   0.94767   0.00000  Uiso   1.00
H28    H     0.00432   0.86039   0.98605   0.00000  Uiso   1.00
H29    H     0.38605   0.58911   0.51186   0.00000  Uiso   1.00
H30    H     0.73503   0.66729   0.04331   0.00000  Uiso   1.00
H31    H     0.47100   0.03532   0.77689   0.00000  Uiso   1.00
H32    H     0.29799   0.11848   0.84072   0.00000  Uiso   1.00
H33    H     0.47901   0.98982   0.61583   0.00000  Uiso   1.00
H34    H     0.64450   0.02690   0.86785   0.00000  Uiso   1.00
H35    H     0.09276   0.16456   0.92127   0.00000  Uiso   1.00
H36    H     0.47449   0.89327   0.44707   0.00000  Uiso   1.00
H37    H     0.82346   0.97146   0.97853   0.00000  Uiso   1.00
O38    O     0.93285   0.06076   0.99699   0.00000  Uiso   1.00
O39    O     0.43368   0.70484   0.37487   0.00000  Uiso   1.00
O40    O     0.89152   0.80741   0.07212   0.00000  Uiso   1.00
N41    N     0.04889   0.92057   0.96206   0.00000  Uiso   1.00
N42    N     0.40576   0.66694   0.51871   0.00000  Uiso   1.00
N43    N     0.73204   0.74002   0.01556   0.00000  Uiso   1.00
N44    N     0.09648   0.08424   0.92720   0.00000  Uiso   1.00
N45    N     0.45335   0.83061   0.48386   0.00000  Uiso   1.00
N46    N     0.77963   0.90369   0.98070   0.00000  Uiso   1.00
C47    C     0.60864   0.23854   0.33523   0.00000  Uiso   1.00
C48    C     0.69139   0.15469   0.36167   0.00000  Uiso   1.00
C49    C     0.78747   0.17536   0.40332   0.00000  Uiso   1.00
C50    C     0.85218   0.08768   0.42193   0.00000  Uiso   1.00
C51    C     0.98531   0.97340   0.46635   0.00000  Uiso   1.00
C52    C     0.59305   0.22459   0.23948   0.00000  Uiso   1.00
C53    C     0.60644   0.30404   0.17839   0.00000  Uiso   1.00
C54    C     0.58834   0.27520   0.09414   0.00000  Uiso   1.00
C55    C     0.56872   0.26945   0.94885   0.00000  Uiso   1.00
C56    C     0.50314   0.20445   0.37642   0.00000  Uiso   1.00
C57    C     0.44091   0.26696   0.43045   0.00000  Uiso   1.00
C58    C     0.34710   0.22117   0.46148   0.00000  Uiso   1.00
C59    C     0.18789   0.18414   0.52882   0.00000  Uiso   1.00
C60    C     0.55267   0.04607   0.29423   0.00000  Uiso   1.00
C61    C     0.66098   0.05015   0.33940   0.00000  Uiso   1.00
C62    C     0.72555   0.96241   0.35796   0.00000  Uiso   1.00
C63    C     0.82172   0.98295   0.39963   0.00000  Uiso   1.00
C64    C     0.56265   0.12005   0.21721   0.00000  Uiso   1.00
C65    C     0.54452   0.09109   0.13303   0.00000  Uiso   1.00
C66    C     0.55789   0.17047   0.07183   0.00000  Uiso   1.00
C67    C     0.47274   0.09990   0.35415   0.00000  Uiso   1.00
C68    C     0.37900   0.05401   0.38510   0.00000  Uiso   1.00
C69    C     0.31665   0.11644   0.43917   0.00000  Uiso   1.00
H70    H     0.63230   0.31994   0.35256   0.00000  Uiso   1.00
H71    H     0.81098   0.25628   0.42053   0.00000  Uiso   1.00
H72    H     0.62995   0.38494   0.19564   0.00000  Uiso   1.00
H73    H     0.46446   0.34786   0.44767   0.00000  Uiso   1.00
H74    H     0.99568   0.13961   0.48605   0.00000  Uiso   1.00
H75    H     0.61395   0.41089   0.01186   0.00000  Uiso   1.00
H76    H     0.26497   0.33271   0.54331   0.00000  Uiso   1.00
H77    H     0.52900   0.96468   0.27689   0.00000  Uiso   1.00
H78    H     0.70201   0.88152   0.34072   0.00000  Uiso   1.00
H79    H     0.52099   0.01018   0.11583   0.00000  Uiso   1.00
H80    H     0.35550   0.97310   0.36785   0.00000  Uiso   1.00
H81    H     0.90724   0.83544   0.42127   0.00000  Uiso   1.00
H82    H     0.52551   0.10673   0.94707   0.00000  Uiso   1.00
H83    H     0.17654   0.02854   0.47853   0.00000  Uiso   1.00
O84    O     0.06715   0.93924   0.49699   0.00000  Uiso   1.00
O85    O     0.56632   0.29516   0.87487   0.00000  Uiso   1.00
O86    O     0.10848   0.19259   0.57212   0.00000  Uiso   1.00
N87    N     0.95111   0.07943   0.46206   0.00000  Uiso   1.00
N88    N     0.59424   0.33306   0.01871   0.00000  Uiso   1.00
N89    N     0.26796   0.25998   0.51556   0.00000  Uiso   1.00
N90    N     0.90352   0.91576   0.42720   0.00000  Uiso   1.00
N91    N     0.54665   0.16939   0.98386   0.00000  Uiso   1.00
N92    N     0.22037   0.09631   0.48070   0.00000  Uiso   1.00
C93    C     0.23854   0.39136   0.08523   0.00000  Uiso   1.00
C94    C     0.15469   0.30861   0.11167   0.00000  Uiso   1.00
C95    C     0.17536   0.21253   0.15332   0.00000  Uiso   1.00
C96    C     0.08768   0.14782   0.17193   0.00000  Uiso   1.00
C97    C     0.97340   0.01469   0.21635   0.00000  Uiso   1.00
C98    C     0.22459   0.40695   0.98948   0.00000  Uiso   1.00
C99    C     0.30404   0.39356   0.92839   0.00000  Uiso   1.00
C100   C     0.27520   0.41166   0.84414   0.00000  Uiso   1.00
C101   C     0.26945   0.43128   0.69885   0.00000  Uiso   1.00
C102   C     0.20445   0.49686   0.12642   0.00000  Uiso   1.00
C103   C     0.26696   0.55909   0.18045   0.00000  Uiso   1.00
C104   C     0.22117   0.65290   0.21148   0.00000  Uiso   1.00
C105   C     0.18414   0.81211   0.27882   0.00000  Uiso   1.00
C106   C     0.04607   0.44733   0.04423   0.00000  Uiso   1.00
C107   C     0.05015   0.33902   0.08940   0.00000  Uiso   1.00
C108   C     0.96241   0.27445   0.10796   0.00000  Uiso   1.00
C109   C     0.98295   0.17828   0.14963   0.00000  Uiso   1.00
C110   C     0.12005   0.43735   0.96721   0.00000  Uiso   1.00
C111   C     0.09109   0.45548   0.88303   0.00000  Uiso   1.00
C112   C     0.17047   0.44211   0.82183   0.00000  Uiso   1.00
C113   C     0.09990   0.52726   0.10415   0.00000  Uiso   1.00
C114   C     0.05401   0.62100   0.13510   0.00000  Uiso   1.00
C115   C     0.11644   0.68335   0.18917   0.00000  Uiso   1.00
H116   H     0.31994   0.36770   0.10256   0.00000  Uiso   1.00
H117   H     0.25628   0.18902   0.17053   0.00000  Uiso   1.00
H118   H     0.38494   0.37005   0.94564   0.00000  Uiso   1.00
H119   H     0.34786   0.53554   0.19767   0.00000  Uiso   1.00
H120   H     0.13961   0.00432   0.23605   0.00000  Uiso   1.00
H121   H     0.41089   0.38605   0.76186   0.00000  Uiso   1.00
H122   H     0.33271   0.73503   0.29331   0.00000  Uiso   1.00
H123   H     0.96468   0.47100   0.02689   0.00000  Uiso   1.00
H124   H     0.88152   0.29799   0.09072   0.00000  Uiso   1.00
H125   H     0.01018   0.47901   0.86583   0.00000  Uiso   1.00
H126   H     0.97310   0.64450   0.11785   0.00000  Uiso   1.00
H127   H     0.83544   0.09276   0.17127   0.00000  Uiso   1.00
H128   H     0.10673   0.47449   0.69707   0.00000  Uiso   1.00
H129   H     0.02854   0.82346   0.22853   0.00000  Uiso   1.00
O130   O     0.93924   0.93285   0.24699   0.00000  Uiso   1.00
O131   O     0.29516   0.43368   0.62487   0.00000  Uiso   1.00
O132   O     0.19259   0.89152   0.32212   0.00000  Uiso   1.00
N133   N     0.07943   0.04889   0.21206   0.00000  Uiso   1.00
N134   N     0.33306   0.40576   0.76871   0.00000  Uiso   1.00
N135   N     0.25998   0.73204   0.26556   0.00000  Uiso   1.00
N136   N     0.91576   0.09648   0.17720   0.00000  Uiso   1.00
N137   N     0.16939   0.45335   0.73386   0.00000  Uiso   1.00
N138   N     0.09631   0.77963   0.23070   0.00000  Uiso   1.00
C139   C     0.76146   0.60864   0.58523   0.00000  Uiso   1.00
C140   C     0.84531   0.69139   0.61167   0.00000  Uiso   1.00
C141   C     0.82464   0.78747   0.65332   0.00000  Uiso   1.00
C142   C     0.91232   0.85218   0.67193   0.00000  Uiso   1.00
C143   C     0.02660   0.98531   0.71635   0.00000  Uiso   1.00
C144   C     0.77541   0.59305   0.48948   0.00000  Uiso   1.00
C145   C     0.69596   0.60644   0.42839   0.00000  Uiso   1.00
C146   C     0.72480   0.58834   0.34414   0.00000  Uiso   1.00
C147   C     0.73055   0.56872   0.19885   0.00000  Uiso   1.00
C148   C     0.79555   0.50314   0.62642   0.00000  Uiso   1.00
C149   C     0.73304   0.44091   0.68045   0.00000  Uiso   1.00
C150   C     0.77883   0.34710   0.71148   0.00000  Uiso   1.00
C151   C     0.81586   0.18789   0.77882   0.00000  Uiso   1.00
C152   C     0.95393   0.55267   0.54423   0.00000  Uiso   1.00
C153   C     0.94985   0.66098   0.58940   0.00000  Uiso   1.00
C154   C     0.03759   0.72555   0.60796   0.00000  Uiso   1.00
C155   C     0.01705   0.82172   0.64963   0.00000  Uiso   1.00
C156   C     0.87995   0.56265   0.46721   0.00000  Uiso   1.00
C157   C     0.90891   0.54452   0.38303   0.00000  Uiso   1.00
C158   C     0.82953   0.55789   0.32183   0.00000  Uiso   1.00
C159   C     0.90010   0.47274   0.60415   0.00000  Uiso   1.00
C160   C     0.94599   0.37900   0.63510   0.00000  Uiso   1.00
C161   C     0.88356   0.31665   0.68917   0.00000  Uiso   1.00
H162   H     0.68006   0.63230   0.60256   0.00000  Uiso   1.00
H163   H     0.74372   0.81098   0.67053   0.00000  Uiso   1.00
H164   H     0.61506   0.62995   0.44564   0.00000  Uiso   1.00
H165   H     0.65214   0.46446   0.69767   0.00000  Uiso   1.00
H166   H     0.86039   0.99568   0.73605   0.00000  Uiso   1.00
H167   H     0.58911   0.61395   0.26186   0.00000  Uiso   1.00
H168   H     0.66729   0.26497   0.79331   0.00000  Uiso   1.00
H169   H     0.03532   0.52900   0.52689   0.00000  Uiso   1.00
H170   H     0.11848   0.70201   0.59072   0.00000  Uiso   1.00
H171   H     0.98982   0.52099   0.36583   0.00000  Uiso   1.00
H172   H     0.02690   0.35550   0.61785   0.00000  Uiso   1.00
H173   H     0.16456   0.90724   0.67127   0.00000  Uiso   1.00
H174   H     0.89327   0.52551   0.19707   0.00000  Uiso   1.00
H175   H     0.97146   0.17654   0.72853   0.00000  Uiso   1.00
O176   O     0.06076   0.06715   0.74699   0.00000  Uiso   1.00
O177   O     0.70484   0.56632   0.12487   0.00000  Uiso   1.00
O178   O     0.80741   0.10848   0.82212   0.00000  Uiso   1.00
N179   N     0.92057   0.95111   0.71206   0.00000  Uiso   1.00
N180   N     0.66694   0.59424   0.26871   0.00000  Uiso   1.00
N181   N     0.74002   0.26796   0.76556   0.00000  Uiso   1.00
N182   N     0.08424   0.90352   0.67720   0.00000  Uiso   1.00
N183   N     0.83061   0.54665   0.23386   0.00000  Uiso   1.00
N184   N     0.90369   0.22037   0.73070   0.00000  Uiso   1.00
