data_job_01992
_audit_creation_date              2018-12-19
_audit_creation_method            'Materials Studio'
_symmetry_space_group_name_H-M    'P1'
_symmetry_Int_Tables_number       1
_symmetry_cell_setting            triclinic
loop_
_symmetry_equiv_pos_as_xyz
  x,y,z
_cell_length_a                    14.4250
_cell_length_b                    18.7899
_cell_length_c                    12.4101
_cell_angle_alpha                 90.0000
_cell_angle_beta                  105.8320
_cell_angle_gamma                 90.0000
loop_
_atom_site_label
_atom_site_type_symbol
_atom_site_fract_x
_atom_site_fract_y
_atom_site_fract_z
_atom_site_U_iso_or_equiv
_atom_site_adp_type
_atom_site_occupancy
C1     C     0.87722   0.42542   0.71727   0.00000  Uiso   1.00
C2     C     0.86831   0.34571   0.69353   0.00000  Uiso   1.00
C3     C     0.94192   0.29616   0.72689   0.00000  Uiso   1.00
C4     C     0.91922   0.22579   0.69689   0.00000  Uiso   1.00
C5     C     0.91954   0.10508   0.66928   0.00000  Uiso   1.00
C6     C     0.84489   0.46206   0.60351   0.00000  Uiso   1.00
C7     C     0.89881   0.51033   0.56120   0.00000  Uiso   1.00
C8     C     0.85638   0.53791   0.45542   0.00000  Uiso   1.00
C9     C     0.82032   0.59788   0.28809   0.00000  Uiso   1.00
C10    C     0.80114   0.44322   0.77760   0.00000  Uiso   1.00
C11    C     0.81826   0.47567   0.88165   0.00000  Uiso   1.00
C12    C     0.73900   0.48741   0.92243   0.00000  Uiso   1.00
C13    C     0.63500   0.51812   0.02541   0.00000  Uiso   1.00
C14    C     0.70602   0.38857   0.60468   0.00000  Uiso   1.00
C15    C     0.77532   0.32570   0.63237   0.00000  Uiso   1.00
C16    C     0.75250   0.25539   0.60232   0.00000  Uiso   1.00
C17    C     0.82606   0.20573   0.63563   0.00000  Uiso   1.00
C18    C     0.75191   0.44205   0.54236   0.00000  Uiso   1.00
C19    C     0.70939   0.46957   0.43663   0.00000  Uiso   1.00
C20    C     0.76323   0.51786   0.39415   0.00000  Uiso   1.00
C21    C     0.70815   0.42321   0.71645   0.00000  Uiso   1.00
C22    C     0.62885   0.43490   0.75708   0.00000  Uiso   1.00
C23    C     0.64584   0.46736   0.86117   0.00000  Uiso   1.00
H24    H     0.94962   0.44100   0.76488   0.00000  Uiso   1.00
H25    H     0.01387   0.31167   0.77421   0.00000  Uiso   1.00
H26    H     0.97076   0.52582   0.60855   0.00000  Uiso   1.00
H27    H     0.89023   0.49115   0.92895   0.00000  Uiso   1.00
H28    H     0.04411   0.15946   0.75754   0.00000  Uiso   1.00
H29    H     0.95320   0.61102   0.40825   0.00000  Uiso   1.00
H30    H     0.78338   0.53793   0.08389   0.00000  Uiso   1.00
H31    H     0.63362   0.37299   0.55706   0.00000  Uiso   1.00
H32    H     0.68054   0.23992   0.55499   0.00000  Uiso   1.00
H33    H     0.63743   0.45407   0.38933   0.00000  Uiso   1.00
H34    H     0.55690   0.41941   0.70973   0.00000  Uiso   1.00
H35    H     0.77357   0.10122   0.57961   0.00000  Uiso   1.00
H36    H     0.68265   0.55279   0.23033   0.00000  Uiso   1.00
H37    H     0.51283   0.47970   0.90596   0.00000  Uiso   1.00
O38    O     0.94541   0.04403   0.67093   0.00000  Uiso   1.00
O39    O     0.82613   0.63648   0.21269   0.00000  Uiso   1.00
O40    O     0.60333   0.54058   0.09910   0.00000  Uiso   1.00
N41    N     0.97400   0.16401   0.71597   0.00000  Uiso   1.00
N42    N     0.88900   0.58619   0.38940   0.00000  Uiso   1.00
N43    N     0.73023   0.51787   0.02105   0.00000  Uiso   1.00
N44    N     0.82842   0.13267   0.62023   0.00000  Uiso   1.00
N45    N     0.74342   0.55485   0.29366   0.00000  Uiso   1.00
N46    N     0.58465   0.48654   0.92530   0.00000  Uiso   1.00
C47    C     0.12278   0.92542   0.78273   0.00000  Uiso   1.00
C48    C     0.13169   0.84571   0.80647   0.00000  Uiso   1.00
C49    C     0.05808   0.79616   0.77311   0.00000  Uiso   1.00
C50    C     0.08078   0.72579   0.80311   0.00000  Uiso   1.00
C51    C     0.08046   0.60508   0.83072   0.00000  Uiso   1.00
C52    C     0.15511   0.96206   0.89649   0.00000  Uiso   1.00
C53    C     0.10119   0.01033   0.93880   0.00000  Uiso   1.00
C54    C     0.14362   0.03791   0.04458   0.00000  Uiso   1.00
C55    C     0.17968   0.09788   0.21191   0.00000  Uiso   1.00
C56    C     0.19886   0.94322   0.72240   0.00000  Uiso   1.00
C57    C     0.18174   0.97567   0.61835   0.00000  Uiso   1.00
C58    C     0.26100   0.98741   0.57757   0.00000  Uiso   1.00
C59    C     0.36500   0.01812   0.47459   0.00000  Uiso   1.00
C60    C     0.29398   0.88857   0.89532   0.00000  Uiso   1.00
C61    C     0.22468   0.82570   0.86763   0.00000  Uiso   1.00
C62    C     0.24750   0.75539   0.89768   0.00000  Uiso   1.00
C63    C     0.17394   0.70573   0.86437   0.00000  Uiso   1.00
C64    C     0.24809   0.94205   0.95764   0.00000  Uiso   1.00
C65    C     0.29061   0.96957   0.06337   0.00000  Uiso   1.00
C66    C     0.23677   0.01786   0.10585   0.00000  Uiso   1.00
C67    C     0.29185   0.92321   0.78355   0.00000  Uiso   1.00
C68    C     0.37115   0.93490   0.74292   0.00000  Uiso   1.00
C69    C     0.35416   0.96736   0.63883   0.00000  Uiso   1.00
H70    H     0.05038   0.94100   0.73512   0.00000  Uiso   1.00
H71    H     0.98613   0.81167   0.72579   0.00000  Uiso   1.00
H72    H     0.02924   0.02582   0.89145   0.00000  Uiso   1.00
H73    H     0.10977   0.99115   0.57105   0.00000  Uiso   1.00
H74    H     0.95589   0.65946   0.74246   0.00000  Uiso   1.00
H75    H     0.04680   0.11102   0.09175   0.00000  Uiso   1.00
H76    H     0.21662   0.03793   0.41611   0.00000  Uiso   1.00
H77    H     0.36638   0.87299   0.94294   0.00000  Uiso   1.00
H78    H     0.31946   0.73992   0.94501   0.00000  Uiso   1.00
H79    H     0.36257   0.95407   0.11067   0.00000  Uiso   1.00
H80    H     0.44310   0.91941   0.79027   0.00000  Uiso   1.00
H81    H     0.22643   0.60122   0.92039   0.00000  Uiso   1.00
H82    H     0.31735   0.05279   0.26967   0.00000  Uiso   1.00
H83    H     0.48717   0.97970   0.59404   0.00000  Uiso   1.00
O84    O     0.05459   0.54403   0.82907   0.00000  Uiso   1.00
O85    O     0.17387   0.13648   0.28731   0.00000  Uiso   1.00
O86    O     0.39667   0.04058   0.40090   0.00000  Uiso   1.00
N87    N     0.02600   0.66401   0.78403   0.00000  Uiso   1.00
N88    N     0.11100   0.08619   0.11060   0.00000  Uiso   1.00
N89    N     0.26977   0.01787   0.47895   0.00000  Uiso   1.00
N90    N     0.17158   0.63267   0.87977   0.00000  Uiso   1.00
N91    N     0.25658   0.05485   0.20634   0.00000  Uiso   1.00
N92    N     0.41535   0.98654   0.57470   0.00000  Uiso   1.00
C93    C     0.12278   0.57458   0.28273   0.00000  Uiso   1.00
C94    C     0.13169   0.65429   0.30647   0.00000  Uiso   1.00
C95    C     0.05808   0.70384   0.27311   0.00000  Uiso   1.00
C96    C     0.08078   0.77421   0.30311   0.00000  Uiso   1.00
C97    C     0.08046   0.89492   0.33072   0.00000  Uiso   1.00
C98    C     0.15511   0.53794   0.39649   0.00000  Uiso   1.00
C99    C     0.10119   0.48967   0.43880   0.00000  Uiso   1.00
C100   C     0.14362   0.46209   0.54458   0.00000  Uiso   1.00
C101   C     0.17968   0.40212   0.71191   0.00000  Uiso   1.00
C102   C     0.19886   0.55678   0.22240   0.00000  Uiso   1.00
C103   C     0.18174   0.52433   0.11835   0.00000  Uiso   1.00
C104   C     0.26100   0.51259   0.07757   0.00000  Uiso   1.00
C105   C     0.36500   0.48188   0.97459   0.00000  Uiso   1.00
C106   C     0.29398   0.61143   0.39532   0.00000  Uiso   1.00
C107   C     0.22468   0.67430   0.36763   0.00000  Uiso   1.00
C108   C     0.24750   0.74461   0.39768   0.00000  Uiso   1.00
C109   C     0.17394   0.79427   0.36437   0.00000  Uiso   1.00
C110   C     0.24809   0.55795   0.45764   0.00000  Uiso   1.00
C111   C     0.29061   0.53043   0.56337   0.00000  Uiso   1.00
C112   C     0.23677   0.48214   0.60585   0.00000  Uiso   1.00
C113   C     0.29185   0.57679   0.28355   0.00000  Uiso   1.00
C114   C     0.37115   0.56510   0.24292   0.00000  Uiso   1.00
C115   C     0.35416   0.53264   0.13883   0.00000  Uiso   1.00
H116   H     0.05038   0.55900   0.23512   0.00000  Uiso   1.00
H117   H     0.98613   0.68833   0.22579   0.00000  Uiso   1.00
H118   H     0.02924   0.47418   0.39145   0.00000  Uiso   1.00
H119   H     0.10977   0.50885   0.07105   0.00000  Uiso   1.00
H120   H     0.95589   0.84054   0.24246   0.00000  Uiso   1.00
H121   H     0.04680   0.38898   0.59175   0.00000  Uiso   1.00
H122   H     0.21662   0.46207   0.91611   0.00000  Uiso   1.00
H123   H     0.36638   0.62701   0.44294   0.00000  Uiso   1.00
H124   H     0.31946   0.76008   0.44501   0.00000  Uiso   1.00
H125   H     0.36257   0.54593   0.61067   0.00000  Uiso   1.00
H126   H     0.44310   0.58059   0.29027   0.00000  Uiso   1.00
H127   H     0.22643   0.89878   0.42039   0.00000  Uiso   1.00
H128   H     0.31735   0.44721   0.76967   0.00000  Uiso   1.00
H129   H     0.48717   0.52030   0.09404   0.00000  Uiso   1.00
O130   O     0.05459   0.95597   0.32907   0.00000  Uiso   1.00
O131   O     0.17387   0.36352   0.78731   0.00000  Uiso   1.00
O132   O     0.39667   0.45942   0.90090   0.00000  Uiso   1.00
N133   N     0.02600   0.83599   0.28403   0.00000  Uiso   1.00
N134   N     0.11100   0.41381   0.61060   0.00000  Uiso   1.00
N135   N     0.26977   0.48213   0.97895   0.00000  Uiso   1.00
N136   N     0.17158   0.86733   0.37977   0.00000  Uiso   1.00
N137   N     0.25658   0.44515   0.70634   0.00000  Uiso   1.00
N138   N     0.41535   0.51346   0.07470   0.00000  Uiso   1.00
C139   C     0.87722   0.07458   0.21727   0.00000  Uiso   1.00
C140   C     0.86831   0.15429   0.19353   0.00000  Uiso   1.00
C141   C     0.94192   0.20384   0.22689   0.00000  Uiso   1.00
C142   C     0.91922   0.27421   0.19689   0.00000  Uiso   1.00
C143   C     0.91954   0.39492   0.16928   0.00000  Uiso   1.00
C144   C     0.84489   0.03794   0.10351   0.00000  Uiso   1.00
C145   C     0.89881   0.98967   0.06120   0.00000  Uiso   1.00
C146   C     0.85638   0.96209   0.95542   0.00000  Uiso   1.00
C147   C     0.82032   0.90212   0.78809   0.00000  Uiso   1.00
C148   C     0.80114   0.05678   0.27760   0.00000  Uiso   1.00
C149   C     0.81826   0.02433   0.38165   0.00000  Uiso   1.00
C150   C     0.73900   0.01259   0.42243   0.00000  Uiso   1.00
C151   C     0.63500   0.98188   0.52541   0.00000  Uiso   1.00
C152   C     0.70602   0.11143   0.10468   0.00000  Uiso   1.00
C153   C     0.77532   0.17430   0.13237   0.00000  Uiso   1.00
C154   C     0.75250   0.24461   0.10232   0.00000  Uiso   1.00
C155   C     0.82606   0.29427   0.13563   0.00000  Uiso   1.00
C156   C     0.75191   0.05795   0.04236   0.00000  Uiso   1.00
C157   C     0.70939   0.03043   0.93663   0.00000  Uiso   1.00
C158   C     0.76323   0.98214   0.89415   0.00000  Uiso   1.00
C159   C     0.70815   0.07679   0.21645   0.00000  Uiso   1.00
C160   C     0.62885   0.06510   0.25708   0.00000  Uiso   1.00
C161   C     0.64584   0.03264   0.36117   0.00000  Uiso   1.00
H162   H     0.94962   0.05900   0.26488   0.00000  Uiso   1.00
H163   H     0.01387   0.18833   0.27421   0.00000  Uiso   1.00
H164   H     0.97076   0.97418   0.10855   0.00000  Uiso   1.00
H165   H     0.89023   0.00885   0.42895   0.00000  Uiso   1.00
H166   H     0.04411   0.34054   0.25754   0.00000  Uiso   1.00
H167   H     0.95320   0.88898   0.90825   0.00000  Uiso   1.00
H168   H     0.78338   0.96207   0.58389   0.00000  Uiso   1.00
H169   H     0.63362   0.12701   0.05706   0.00000  Uiso   1.00
H170   H     0.68054   0.26008   0.05499   0.00000  Uiso   1.00
H171   H     0.63743   0.04593   0.88933   0.00000  Uiso   1.00
H172   H     0.55690   0.08059   0.20973   0.00000  Uiso   1.00
H173   H     0.77357   0.39878   0.07961   0.00000  Uiso   1.00
H174   H     0.68265   0.94721   0.73033   0.00000  Uiso   1.00
H175   H     0.51283   0.02030   0.40596   0.00000  Uiso   1.00
O176   O     0.94541   0.45597   0.17093   0.00000  Uiso   1.00
O177   O     0.82613   0.86352   0.71269   0.00000  Uiso   1.00
O178   O     0.60333   0.95942   0.59910   0.00000  Uiso   1.00
N179   N     0.97400   0.33599   0.21597   0.00000  Uiso   1.00
N180   N     0.88900   0.91381   0.88940   0.00000  Uiso   1.00
N181   N     0.73023   0.98213   0.52105   0.00000  Uiso   1.00
N182   N     0.82842   0.36733   0.12023   0.00000  Uiso   1.00
N183   N     0.74342   0.94515   0.79366   0.00000  Uiso   1.00
N184   N     0.58465   0.01346   0.42530   0.00000  Uiso   1.00
