data_job_03543
_audit_creation_date              2018-12-19
_audit_creation_method            'Materials Studio'
_symmetry_space_group_name_H-M    'P1'
_symmetry_Int_Tables_number       1
_symmetry_cell_setting            triclinic
loop_
_symmetry_equiv_pos_as_xyz
  x,y,z
_cell_length_a                    23.0576
_cell_length_b                    15.0751
_cell_length_c                    16.9016
_cell_angle_alpha                 90.0000
_cell_angle_beta                  90.0000
_cell_angle_gamma                 90.0000
loop_
_atom_site_label
_atom_site_type_symbol
_atom_site_fract_x
_atom_site_fract_y
_atom_site_fract_z
_atom_site_U_iso_or_equiv
_atom_site_adp_type
_atom_site_occupancy
C1     C     0.75506   0.58860   0.35017   0.00000  Uiso   1.00
C2     C     0.80776   0.58674   0.40464   0.00000  Uiso   1.00
C3     C     0.85108   0.65055   0.40780   0.00000  Uiso   1.00
C4     C     0.89565   0.63672   0.46165   0.00000  Uiso   1.00
C5     C     0.97733   0.64520   0.53877   0.00000  Uiso   1.00
C6     C     0.75672   0.50204   0.30355   0.00000  Uiso   1.00
C7     C     0.75711   0.49463   0.22170   0.00000  Uiso   1.00
C8     C     0.75870   0.40949   0.19045   0.00000  Uiso   1.00
C9     C     0.76109   0.28648   0.11061   0.00000  Uiso   1.00
C10    C     0.70214   0.58243   0.40400   0.00000  Uiso   1.00
C11    C     0.65663   0.64261   0.40660   0.00000  Uiso   1.00
C12    C     0.61226   0.62515   0.45990   0.00000  Uiso   1.00
C13    C     0.52990   0.62696   0.53603   0.00000  Uiso   1.00
C14    C     0.75716   0.45056   0.44019   0.00000  Uiso   1.00
C15    C     0.80891   0.51176   0.45354   0.00000  Uiso   1.00
C16    C     0.85342   0.49783   0.50740   0.00000  Uiso   1.00
C17    C     0.89679   0.56161   0.51063   0.00000  Uiso   1.00
C18    C     0.75786   0.42706   0.35244   0.00000  Uiso   1.00
C19    C     0.75944   0.34191   0.32130   0.00000  Uiso   1.00
C20    C     0.75984   0.33438   0.23943   0.00000  Uiso   1.00
C21    C     0.70328   0.50746   0.45290   0.00000  Uiso   1.00
C22    C     0.65897   0.48989   0.50620   0.00000  Uiso   1.00
C23    C     0.61340   0.55004   0.50889   0.00000  Uiso   1.00
H24    H     0.75416   0.64697   0.31210   0.00000  Uiso   1.00
H25    H     0.85018   0.70856   0.36994   0.00000  Uiso   1.00
H26    H     0.75622   0.55267   0.18388   0.00000  Uiso   1.00
H27    H     0.65576   0.70063   0.36875   0.00000  Uiso   1.00
H28    H     0.95715   0.74376   0.45562   0.00000  Uiso   1.00
H29    H     0.75901   0.41505   0.06329   0.00000  Uiso   1.00
H30    H     0.54716   0.72705   0.45313   0.00000  Uiso   1.00
H31    H     0.75806   0.39219   0.47826   0.00000  Uiso   1.00
H32    H     0.85429   0.43980   0.54523   0.00000  Uiso   1.00
H33    H     0.76033   0.28390   0.35916   0.00000  Uiso   1.00
H34    H     0.65987   0.43186   0.54403   0.00000  Uiso   1.00
H35    H     0.96049   0.52562   0.59788   0.00000  Uiso   1.00
H36    H     0.76234   0.19691   0.20555   0.00000  Uiso   1.00
H37    H     0.55050   0.50891   0.59539   0.00000  Uiso   1.00
O38    O     0.02207   0.67059   0.56779   0.00000  Uiso   1.00
O39    O     0.76209   0.23934   0.05307   0.00000  Uiso   1.00
O40    O     0.48416   0.64868   0.56453   0.00000  Uiso   1.00
N41    N     0.94473   0.68590   0.47992   0.00000  Uiso   1.00
N42    N     0.75948   0.37857   0.11312   0.00000  Uiso   1.00
N43    N     0.56141   0.67026   0.47757   0.00000  Uiso   1.00
N44    N     0.94652   0.56852   0.55647   0.00000  Uiso   1.00
N45    N     0.76127   0.26119   0.18967   0.00000  Uiso   1.00
N46    N     0.56321   0.55288   0.55412   0.00000  Uiso   1.00
C47    C     0.74494   0.91140   0.85017   0.00000  Uiso   1.00
C48    C     0.69224   0.91326   0.90464   0.00000  Uiso   1.00
C49    C     0.64892   0.84945   0.90780   0.00000  Uiso   1.00
C50    C     0.60435   0.86328   0.96165   0.00000  Uiso   1.00
C51    C     0.52267   0.85480   0.03877   0.00000  Uiso   1.00
C52    C     0.74328   0.99796   0.80355   0.00000  Uiso   1.00
C53    C     0.74289   0.00537   0.72170   0.00000  Uiso   1.00
C54    C     0.74130   0.09051   0.69045   0.00000  Uiso   1.00
C55    C     0.73891   0.21352   0.61061   0.00000  Uiso   1.00
C56    C     0.79786   0.91757   0.90400   0.00000  Uiso   1.00
C57    C     0.84337   0.85739   0.90660   0.00000  Uiso   1.00
C58    C     0.88774   0.87485   0.95990   0.00000  Uiso   1.00
C59    C     0.97010   0.87304   0.03603   0.00000  Uiso   1.00
C60    C     0.74284   0.04944   0.94019   0.00000  Uiso   1.00
C61    C     0.69109   0.98824   0.95354   0.00000  Uiso   1.00
C62    C     0.64658   0.00217   0.00740   0.00000  Uiso   1.00
C63    C     0.60321   0.93839   0.01063   0.00000  Uiso   1.00
C64    C     0.74214   0.07294   0.85244   0.00000  Uiso   1.00
C65    C     0.74056   0.15809   0.82130   0.00000  Uiso   1.00
C66    C     0.74016   0.16562   0.73943   0.00000  Uiso   1.00
C67    C     0.79672   0.99254   0.95290   0.00000  Uiso   1.00
C68    C     0.84103   0.01011   0.00620   0.00000  Uiso   1.00
C69    C     0.88660   0.94996   0.00889   0.00000  Uiso   1.00
H70    H     0.74584   0.85303   0.81210   0.00000  Uiso   1.00
H71    H     0.64982   0.79144   0.86994   0.00000  Uiso   1.00
H72    H     0.74378   0.94733   0.68388   0.00000  Uiso   1.00
H73    H     0.84424   0.79937   0.86875   0.00000  Uiso   1.00
H74    H     0.54285   0.75624   0.95562   0.00000  Uiso   1.00
H75    H     0.74099   0.08495   0.56329   0.00000  Uiso   1.00
H76    H     0.95284   0.77295   0.95313   0.00000  Uiso   1.00
H77    H     0.74194   0.10781   0.97826   0.00000  Uiso   1.00
H78    H     0.64571   0.06020   0.04523   0.00000  Uiso   1.00
H79    H     0.73967   0.21610   0.85916   0.00000  Uiso   1.00
H80    H     0.84013   0.06814   0.04403   0.00000  Uiso   1.00
H81    H     0.53951   0.97438   0.09788   0.00000  Uiso   1.00
H82    H     0.73766   0.30309   0.70555   0.00000  Uiso   1.00
H83    H     0.94950   0.99109   0.09539   0.00000  Uiso   1.00
O84    O     0.47793   0.82941   0.06779   0.00000  Uiso   1.00
O85    O     0.73791   0.26066   0.55307   0.00000  Uiso   1.00
O86    O     0.01584   0.85132   0.06453   0.00000  Uiso   1.00
N87    N     0.55527   0.81410   0.97992   0.00000  Uiso   1.00
N88    N     0.74052   0.12143   0.61312   0.00000  Uiso   1.00
N89    N     0.93859   0.82974   0.97757   0.00000  Uiso   1.00
N90    N     0.55348   0.93148   0.05647   0.00000  Uiso   1.00
N91    N     0.73873   0.23881   0.68967   0.00000  Uiso   1.00
N92    N     0.93679   0.94712   0.05412   0.00000  Uiso   1.00
C93    C     0.24494   0.58860   0.14983   0.00000  Uiso   1.00
C94    C     0.19224   0.58674   0.09536   0.00000  Uiso   1.00
C95    C     0.14892   0.65055   0.09220   0.00000  Uiso   1.00
C96    C     0.10435   0.63672   0.03835   0.00000  Uiso   1.00
C97    C     0.02267   0.64520   0.96123   0.00000  Uiso   1.00
C98    C     0.24328   0.50204   0.19645   0.00000  Uiso   1.00
C99    C     0.24289   0.49463   0.27830   0.00000  Uiso   1.00
C100   C     0.24130   0.40949   0.30955   0.00000  Uiso   1.00
C101   C     0.23891   0.28648   0.38939   0.00000  Uiso   1.00
C102   C     0.29786   0.58243   0.09600   0.00000  Uiso   1.00
C103   C     0.34337   0.64261   0.09340   0.00000  Uiso   1.00
C104   C     0.38774   0.62515   0.04010   0.00000  Uiso   1.00
C105   C     0.47010   0.62696   0.96397   0.00000  Uiso   1.00
C106   C     0.24284   0.45056   0.05981   0.00000  Uiso   1.00
C107   C     0.19109   0.51176   0.04646   0.00000  Uiso   1.00
C108   C     0.14658   0.49783   0.99260   0.00000  Uiso   1.00
C109   C     0.10321   0.56161   0.98937   0.00000  Uiso   1.00
C110   C     0.24214   0.42706   0.14756   0.00000  Uiso   1.00
C111   C     0.24056   0.34191   0.17870   0.00000  Uiso   1.00
C112   C     0.24016   0.33438   0.26057   0.00000  Uiso   1.00
C113   C     0.29672   0.50746   0.04710   0.00000  Uiso   1.00
C114   C     0.34103   0.48989   0.99380   0.00000  Uiso   1.00
C115   C     0.38660   0.55004   0.99111   0.00000  Uiso   1.00
H116   H     0.24584   0.64697   0.18790   0.00000  Uiso   1.00
H117   H     0.14982   0.70856   0.13006   0.00000  Uiso   1.00
H118   H     0.24378   0.55267   0.31612   0.00000  Uiso   1.00
H119   H     0.34424   0.70063   0.13125   0.00000  Uiso   1.00
H120   H     0.04285   0.74376   0.04438   0.00000  Uiso   1.00
H121   H     0.24099   0.41505   0.43671   0.00000  Uiso   1.00
H122   H     0.45284   0.72705   0.04687   0.00000  Uiso   1.00
H123   H     0.24194   0.39219   0.02174   0.00000  Uiso   1.00
H124   H     0.14571   0.43980   0.95477   0.00000  Uiso   1.00
H125   H     0.23967   0.28390   0.14084   0.00000  Uiso   1.00
H126   H     0.34013   0.43186   0.95597   0.00000  Uiso   1.00
H127   H     0.03951   0.52562   0.90212   0.00000  Uiso   1.00
H128   H     0.23766   0.19691   0.29445   0.00000  Uiso   1.00
H129   H     0.44950   0.50891   0.90461   0.00000  Uiso   1.00
O130   O     0.97793   0.67059   0.93221   0.00000  Uiso   1.00
O131   O     0.23791   0.23934   0.44693   0.00000  Uiso   1.00
O132   O     0.51584   0.64868   0.93547   0.00000  Uiso   1.00
N133   N     0.05527   0.68590   0.02008   0.00000  Uiso   1.00
N134   N     0.24052   0.37857   0.38688   0.00000  Uiso   1.00
N135   N     0.43859   0.67026   0.02243   0.00000  Uiso   1.00
N136   N     0.05348   0.56852   0.94353   0.00000  Uiso   1.00
N137   N     0.23873   0.26119   0.31033   0.00000  Uiso   1.00
N138   N     0.43679   0.55288   0.94588   0.00000  Uiso   1.00
C139   C     0.25506   0.91140   0.64983   0.00000  Uiso   1.00
C140   C     0.30776   0.91326   0.59536   0.00000  Uiso   1.00
C141   C     0.35108   0.84945   0.59220   0.00000  Uiso   1.00
C142   C     0.39565   0.86328   0.53835   0.00000  Uiso   1.00
C143   C     0.47733   0.85480   0.46123   0.00000  Uiso   1.00
C144   C     0.25672   0.99796   0.69645   0.00000  Uiso   1.00
C145   C     0.25711   0.00537   0.77830   0.00000  Uiso   1.00
C146   C     0.25870   0.09051   0.80955   0.00000  Uiso   1.00
C147   C     0.26109   0.21352   0.88939   0.00000  Uiso   1.00
C148   C     0.20214   0.91757   0.59600   0.00000  Uiso   1.00
C149   C     0.15663   0.85739   0.59340   0.00000  Uiso   1.00
C150   C     0.11226   0.87485   0.54010   0.00000  Uiso   1.00
C151   C     0.02990   0.87304   0.46397   0.00000  Uiso   1.00
C152   C     0.25716   0.04944   0.55981   0.00000  Uiso   1.00
C153   C     0.30891   0.98824   0.54646   0.00000  Uiso   1.00
C154   C     0.35342   0.00217   0.49260   0.00000  Uiso   1.00
C155   C     0.39679   0.93839   0.48937   0.00000  Uiso   1.00
C156   C     0.25786   0.07294   0.64756   0.00000  Uiso   1.00
C157   C     0.25944   0.15809   0.67870   0.00000  Uiso   1.00
C158   C     0.25984   0.16562   0.76057   0.00000  Uiso   1.00
C159   C     0.20328   0.99254   0.54710   0.00000  Uiso   1.00
C160   C     0.15897   0.01011   0.49380   0.00000  Uiso   1.00
C161   C     0.11340   0.94996   0.49111   0.00000  Uiso   1.00
H162   H     0.25416   0.85303   0.68790   0.00000  Uiso   1.00
H163   H     0.35018   0.79144   0.63006   0.00000  Uiso   1.00
H164   H     0.25622   0.94733   0.81612   0.00000  Uiso   1.00
H165   H     0.15576   0.79937   0.63125   0.00000  Uiso   1.00
H166   H     0.45715   0.75624   0.54438   0.00000  Uiso   1.00
H167   H     0.25901   0.08495   0.93671   0.00000  Uiso   1.00
H168   H     0.04716   0.77295   0.54687   0.00000  Uiso   1.00
H169   H     0.25806   0.10781   0.52174   0.00000  Uiso   1.00
H170   H     0.35429   0.06020   0.45477   0.00000  Uiso   1.00
H171   H     0.26033   0.21610   0.64084   0.00000  Uiso   1.00
H172   H     0.15987   0.06814   0.45597   0.00000  Uiso   1.00
H173   H     0.46049   0.97438   0.40212   0.00000  Uiso   1.00
H174   H     0.26234   0.30309   0.79445   0.00000  Uiso   1.00
H175   H     0.05050   0.99109   0.40461   0.00000  Uiso   1.00
O176   O     0.52207   0.82941   0.43221   0.00000  Uiso   1.00
O177   O     0.26209   0.26066   0.94693   0.00000  Uiso   1.00
O178   O     0.98416   0.85132   0.43547   0.00000  Uiso   1.00
N179   N     0.44473   0.81410   0.52008   0.00000  Uiso   1.00
N180   N     0.25948   0.12143   0.88688   0.00000  Uiso   1.00
N181   N     0.06141   0.82974   0.52243   0.00000  Uiso   1.00
N182   N     0.44652   0.93148   0.44353   0.00000  Uiso   1.00
N183   N     0.26127   0.23881   0.81033   0.00000  Uiso   1.00
N184   N     0.06321   0.94712   0.44588   0.00000  Uiso   1.00
C185   C     0.24494   0.41140   0.64983   0.00000  Uiso   1.00
C186   C     0.19224   0.41326   0.59536   0.00000  Uiso   1.00
C187   C     0.14892   0.34945   0.59220   0.00000  Uiso   1.00
C188   C     0.10435   0.36328   0.53835   0.00000  Uiso   1.00
C189   C     0.02267   0.35480   0.46123   0.00000  Uiso   1.00
C190   C     0.24328   0.49796   0.69645   0.00000  Uiso   1.00
C191   C     0.24289   0.50537   0.77830   0.00000  Uiso   1.00
C192   C     0.24130   0.59051   0.80955   0.00000  Uiso   1.00
C193   C     0.23891   0.71352   0.88939   0.00000  Uiso   1.00
C194   C     0.29786   0.41757   0.59600   0.00000  Uiso   1.00
C195   C     0.34337   0.35739   0.59340   0.00000  Uiso   1.00
C196   C     0.38774   0.37485   0.54010   0.00000  Uiso   1.00
C197   C     0.47010   0.37304   0.46397   0.00000  Uiso   1.00
C198   C     0.24284   0.54944   0.55981   0.00000  Uiso   1.00
C199   C     0.19109   0.48824   0.54646   0.00000  Uiso   1.00
C200   C     0.14658   0.50217   0.49260   0.00000  Uiso   1.00
C201   C     0.10321   0.43839   0.48937   0.00000  Uiso   1.00
C202   C     0.24214   0.57294   0.64756   0.00000  Uiso   1.00
C203   C     0.24056   0.65809   0.67870   0.00000  Uiso   1.00
C204   C     0.24016   0.66562   0.76057   0.00000  Uiso   1.00
C205   C     0.29672   0.49254   0.54710   0.00000  Uiso   1.00
C206   C     0.34103   0.51011   0.49380   0.00000  Uiso   1.00
C207   C     0.38660   0.44996   0.49111   0.00000  Uiso   1.00
H208   H     0.24584   0.35303   0.68790   0.00000  Uiso   1.00
H209   H     0.14982   0.29144   0.63006   0.00000  Uiso   1.00
H210   H     0.24378   0.44733   0.81612   0.00000  Uiso   1.00
H211   H     0.34424   0.29937   0.63125   0.00000  Uiso   1.00
H212   H     0.04285   0.25624   0.54438   0.00000  Uiso   1.00
H213   H     0.24099   0.58495   0.93671   0.00000  Uiso   1.00
H214   H     0.45284   0.27295   0.54687   0.00000  Uiso   1.00
H215   H     0.24194   0.60781   0.52174   0.00000  Uiso   1.00
H216   H     0.14571   0.56020   0.45477   0.00000  Uiso   1.00
H217   H     0.23967   0.71610   0.64084   0.00000  Uiso   1.00
H218   H     0.34013   0.56814   0.45597   0.00000  Uiso   1.00
H219   H     0.03951   0.47438   0.40212   0.00000  Uiso   1.00
H220   H     0.23766   0.80309   0.79445   0.00000  Uiso   1.00
H221   H     0.44950   0.49109   0.40461   0.00000  Uiso   1.00
O222   O     0.97793   0.32941   0.43221   0.00000  Uiso   1.00
O223   O     0.23791   0.76066   0.94693   0.00000  Uiso   1.00
O224   O     0.51584   0.35132   0.43547   0.00000  Uiso   1.00
N225   N     0.05527   0.31410   0.52008   0.00000  Uiso   1.00
N226   N     0.24052   0.62143   0.88688   0.00000  Uiso   1.00
N227   N     0.43859   0.32974   0.52243   0.00000  Uiso   1.00
N228   N     0.05348   0.43148   0.44353   0.00000  Uiso   1.00
N229   N     0.23873   0.73881   0.81033   0.00000  Uiso   1.00
N230   N     0.43679   0.44712   0.44588   0.00000  Uiso   1.00
C231   C     0.25506   0.08860   0.14983   0.00000  Uiso   1.00
C232   C     0.30776   0.08674   0.09536   0.00000  Uiso   1.00
C233   C     0.35108   0.15055   0.09220   0.00000  Uiso   1.00
C234   C     0.39565   0.13672   0.03835   0.00000  Uiso   1.00
C235   C     0.47733   0.14520   0.96123   0.00000  Uiso   1.00
C236   C     0.25672   0.00204   0.19645   0.00000  Uiso   1.00
C237   C     0.25711   0.99463   0.27830   0.00000  Uiso   1.00
C238   C     0.25870   0.90949   0.30955   0.00000  Uiso   1.00
C239   C     0.26109   0.78648   0.38939   0.00000  Uiso   1.00
C240   C     0.20214   0.08243   0.09600   0.00000  Uiso   1.00
C241   C     0.15663   0.14261   0.09340   0.00000  Uiso   1.00
C242   C     0.11226   0.12515   0.04010   0.00000  Uiso   1.00
C243   C     0.02990   0.12696   0.96397   0.00000  Uiso   1.00
C244   C     0.25716   0.95056   0.05981   0.00000  Uiso   1.00
C245   C     0.30891   0.01176   0.04646   0.00000  Uiso   1.00
C246   C     0.35342   0.99783   0.99260   0.00000  Uiso   1.00
C247   C     0.39679   0.06161   0.98937   0.00000  Uiso   1.00
C248   C     0.25786   0.92706   0.14756   0.00000  Uiso   1.00
C249   C     0.25944   0.84191   0.17870   0.00000  Uiso   1.00
C250   C     0.25984   0.83438   0.26057   0.00000  Uiso   1.00
C251   C     0.20328   0.00746   0.04710   0.00000  Uiso   1.00
C252   C     0.15897   0.98989   0.99380   0.00000  Uiso   1.00
C253   C     0.11340   0.05004   0.99111   0.00000  Uiso   1.00
H254   H     0.25416   0.14697   0.18790   0.00000  Uiso   1.00
H255   H     0.35018   0.20856   0.13006   0.00000  Uiso   1.00
H256   H     0.25622   0.05267   0.31612   0.00000  Uiso   1.00
H257   H     0.15576   0.20063   0.13125   0.00000  Uiso   1.00
H258   H     0.45715   0.24376   0.04438   0.00000  Uiso   1.00
H259   H     0.25901   0.91505   0.43671   0.00000  Uiso   1.00
H260   H     0.04716   0.22705   0.04687   0.00000  Uiso   1.00
H261   H     0.25806   0.89219   0.02174   0.00000  Uiso   1.00
H262   H     0.35429   0.93980   0.95477   0.00000  Uiso   1.00
H263   H     0.26033   0.78390   0.14084   0.00000  Uiso   1.00
H264   H     0.15987   0.93186   0.95597   0.00000  Uiso   1.00
H265   H     0.46049   0.02562   0.90212   0.00000  Uiso   1.00
H266   H     0.26234   0.69691   0.29445   0.00000  Uiso   1.00
H267   H     0.05050   0.00891   0.90461   0.00000  Uiso   1.00
O268   O     0.52207   0.17059   0.93221   0.00000  Uiso   1.00
O269   O     0.26209   0.73934   0.44693   0.00000  Uiso   1.00
O270   O     0.98416   0.14868   0.93547   0.00000  Uiso   1.00
N271   N     0.44473   0.18590   0.02008   0.00000  Uiso   1.00
N272   N     0.25948   0.87857   0.38688   0.00000  Uiso   1.00
N273   N     0.06141   0.17026   0.02243   0.00000  Uiso   1.00
N274   N     0.44652   0.06852   0.94353   0.00000  Uiso   1.00
N275   N     0.26127   0.76119   0.31033   0.00000  Uiso   1.00
N276   N     0.06321   0.05288   0.94588   0.00000  Uiso   1.00
C277   C     0.75506   0.41140   0.85017   0.00000  Uiso   1.00
C278   C     0.80776   0.41326   0.90464   0.00000  Uiso   1.00
C279   C     0.85108   0.34945   0.90780   0.00000  Uiso   1.00
C280   C     0.89565   0.36328   0.96165   0.00000  Uiso   1.00
C281   C     0.97733   0.35480   0.03877   0.00000  Uiso   1.00
C282   C     0.75672   0.49796   0.80355   0.00000  Uiso   1.00
C283   C     0.75711   0.50537   0.72170   0.00000  Uiso   1.00
C284   C     0.75870   0.59051   0.69045   0.00000  Uiso   1.00
C285   C     0.76109   0.71352   0.61061   0.00000  Uiso   1.00
C286   C     0.70214   0.41757   0.90400   0.00000  Uiso   1.00
C287   C     0.65663   0.35739   0.90660   0.00000  Uiso   1.00
C288   C     0.61226   0.37485   0.95990   0.00000  Uiso   1.00
C289   C     0.52990   0.37304   0.03603   0.00000  Uiso   1.00
C290   C     0.75716   0.54944   0.94019   0.00000  Uiso   1.00
C291   C     0.80891   0.48824   0.95354   0.00000  Uiso   1.00
C292   C     0.85342   0.50217   0.00740   0.00000  Uiso   1.00
C293   C     0.89679   0.43839   0.01063   0.00000  Uiso   1.00
C294   C     0.75786   0.57294   0.85244   0.00000  Uiso   1.00
C295   C     0.75944   0.65809   0.82130   0.00000  Uiso   1.00
C296   C     0.75984   0.66562   0.73943   0.00000  Uiso   1.00
C297   C     0.70328   0.49254   0.95290   0.00000  Uiso   1.00
C298   C     0.65897   0.51011   0.00620   0.00000  Uiso   1.00
C299   C     0.61340   0.44996   0.00889   0.00000  Uiso   1.00
H300   H     0.75416   0.35303   0.81210   0.00000  Uiso   1.00
H301   H     0.85018   0.29144   0.86994   0.00000  Uiso   1.00
H302   H     0.75622   0.44733   0.68388   0.00000  Uiso   1.00
H303   H     0.65576   0.29937   0.86875   0.00000  Uiso   1.00
H304   H     0.95715   0.25624   0.95562   0.00000  Uiso   1.00
H305   H     0.75901   0.58495   0.56329   0.00000  Uiso   1.00
H306   H     0.54716   0.27295   0.95313   0.00000  Uiso   1.00
H307   H     0.75806   0.60781   0.97826   0.00000  Uiso   1.00
H308   H     0.85429   0.56020   0.04523   0.00000  Uiso   1.00
H309   H     0.76033   0.71610   0.85916   0.00000  Uiso   1.00
H310   H     0.65987   0.56814   0.04403   0.00000  Uiso   1.00
H311   H     0.96049   0.47438   0.09788   0.00000  Uiso   1.00
H312   H     0.76234   0.80309   0.70555   0.00000  Uiso   1.00
H313   H     0.55050   0.49109   0.09539   0.00000  Uiso   1.00
O314   O     0.02207   0.32941   0.06779   0.00000  Uiso   1.00
O315   O     0.76209   0.76066   0.55307   0.00000  Uiso   1.00
O316   O     0.48416   0.35132   0.06453   0.00000  Uiso   1.00
N317   N     0.94473   0.31410   0.97992   0.00000  Uiso   1.00
N318   N     0.75948   0.62143   0.61312   0.00000  Uiso   1.00
N319   N     0.56141   0.32974   0.97757   0.00000  Uiso   1.00
N320   N     0.94652   0.43148   0.05647   0.00000  Uiso   1.00
N321   N     0.76127   0.73881   0.68967   0.00000  Uiso   1.00
N322   N     0.56321   0.44712   0.05412   0.00000  Uiso   1.00
C323   C     0.74494   0.08860   0.35017   0.00000  Uiso   1.00
C324   C     0.69224   0.08674   0.40464   0.00000  Uiso   1.00
C325   C     0.64892   0.15055   0.40780   0.00000  Uiso   1.00
C326   C     0.60435   0.13672   0.46165   0.00000  Uiso   1.00
C327   C     0.52267   0.14520   0.53877   0.00000  Uiso   1.00
C328   C     0.74328   0.00204   0.30355   0.00000  Uiso   1.00
C329   C     0.74289   0.99463   0.22170   0.00000  Uiso   1.00
C330   C     0.74130   0.90949   0.19045   0.00000  Uiso   1.00
C331   C     0.73891   0.78648   0.11061   0.00000  Uiso   1.00
C332   C     0.79786   0.08243   0.40400   0.00000  Uiso   1.00
C333   C     0.84337   0.14261   0.40660   0.00000  Uiso   1.00
C334   C     0.88774   0.12515   0.45990   0.00000  Uiso   1.00
C335   C     0.97010   0.12696   0.53603   0.00000  Uiso   1.00
C336   C     0.74284   0.95056   0.44019   0.00000  Uiso   1.00
C337   C     0.69109   0.01176   0.45354   0.00000  Uiso   1.00
C338   C     0.64658   0.99783   0.50740   0.00000  Uiso   1.00
C339   C     0.60321   0.06161   0.51063   0.00000  Uiso   1.00
C340   C     0.74214   0.92706   0.35244   0.00000  Uiso   1.00
C341   C     0.74056   0.84191   0.32130   0.00000  Uiso   1.00
C342   C     0.74016   0.83438   0.23943   0.00000  Uiso   1.00
C343   C     0.79672   0.00746   0.45290   0.00000  Uiso   1.00
C344   C     0.84103   0.98989   0.50620   0.00000  Uiso   1.00
C345   C     0.88660   0.05004   0.50889   0.00000  Uiso   1.00
H346   H     0.74584   0.14697   0.31210   0.00000  Uiso   1.00
H347   H     0.64982   0.20856   0.36994   0.00000  Uiso   1.00
H348   H     0.74378   0.05267   0.18388   0.00000  Uiso   1.00
H349   H     0.84424   0.20063   0.36875   0.00000  Uiso   1.00
H350   H     0.54285   0.24376   0.45562   0.00000  Uiso   1.00
H351   H     0.74099   0.91505   0.06329   0.00000  Uiso   1.00
H352   H     0.95284   0.22705   0.45313   0.00000  Uiso   1.00
H353   H     0.74194   0.89219   0.47826   0.00000  Uiso   1.00
H354   H     0.64571   0.93980   0.54523   0.00000  Uiso   1.00
H355   H     0.73967   0.78390   0.35916   0.00000  Uiso   1.00
H356   H     0.84013   0.93186   0.54403   0.00000  Uiso   1.00
H357   H     0.53951   0.02562   0.59788   0.00000  Uiso   1.00
H358   H     0.73766   0.69691   0.20555   0.00000  Uiso   1.00
H359   H     0.94950   0.00891   0.59539   0.00000  Uiso   1.00
O360   O     0.47793   0.17059   0.56779   0.00000  Uiso   1.00
O361   O     0.73791   0.73934   0.05307   0.00000  Uiso   1.00
O362   O     0.01584   0.14868   0.56453   0.00000  Uiso   1.00
N363   N     0.55527   0.18590   0.47992   0.00000  Uiso   1.00
N364   N     0.74052   0.87857   0.11312   0.00000  Uiso   1.00
N365   N     0.93859   0.17026   0.47757   0.00000  Uiso   1.00
N366   N     0.55348   0.06852   0.55647   0.00000  Uiso   1.00
N367   N     0.73873   0.76119   0.18967   0.00000  Uiso   1.00
N368   N     0.93679   0.05288   0.55412   0.00000  Uiso   1.00
