data_job_04715
_audit_creation_date              2018-12-19
_audit_creation_method            'Materials Studio'
_symmetry_space_group_name_H-M    'P1'
_symmetry_Int_Tables_number       1
_symmetry_cell_setting            triclinic
loop_
_symmetry_equiv_pos_as_xyz
  x,y,z
_cell_length_a                    12.9705
_cell_length_b                    30.1139
_cell_length_c                    12.4218
_cell_angle_alpha                 90.0000
_cell_angle_beta                  88.9136
_cell_angle_gamma                 90.0000
loop_
_atom_site_label
_atom_site_type_symbol
_atom_site_fract_x
_atom_site_fract_y
_atom_site_fract_z
_atom_site_U_iso_or_equiv
_atom_site_adp_type
_atom_site_occupancy
C1     C     0.63940   0.14558   0.93774   0.00000  Uiso   1.00
C2     C     0.55880   0.13223   0.85601   0.00000  Uiso   1.00
C3     C     0.57875   0.11166   0.75784   0.00000  Uiso   1.00
C4     C     0.49446   0.10218   0.69454   0.00000  Uiso   1.00
C5     C     0.38462   0.07983   0.56248   0.00000  Uiso   1.00
C6     C     0.62461   0.19522   0.95683   0.00000  Uiso   1.00
C7     C     0.69989   0.22761   0.94343   0.00000  Uiso   1.00
C8     C     0.67099   0.27115   0.96503   0.00000  Uiso   1.00
C9     C     0.66333   0.34659   0.98956   0.00000  Uiso   1.00
C10    C     0.60790   0.12283   0.04298   0.00000  Uiso   1.00
C11    C     0.66913   0.09437   0.10205   0.00000  Uiso   1.00
C12    C     0.62617   0.07697   0.19619   0.00000  Uiso   1.00
C13    C     0.59256   0.04002   0.35449   0.00000  Uiso   1.00
C14    C     0.45423   0.16532   0.99992   0.00000  Uiso   1.00
C15    C     0.45823   0.14295   0.88979   0.00000  Uiso   1.00
C16    C     0.37388   0.13349   0.82663   0.00000  Uiso   1.00
C17    C     0.39370   0.11291   0.72838   0.00000  Uiso   1.00
C18    C     0.52404   0.20594   0.99060   0.00000  Uiso   1.00
C19    C     0.49502   0.24944   0.01223   0.00000  Uiso   1.00
C20    C     0.57023   0.28189   0.99886   0.00000  Uiso   1.00
C21    C     0.50732   0.13355   0.07676   0.00000  Uiso   1.00
C22    C     0.46426   0.11620   0.17084   0.00000  Uiso   1.00
C23    C     0.52541   0.08771   0.23003   0.00000  Uiso   1.00
H24    H     0.71770   0.13724   0.91145   0.00000  Uiso   1.00
H25    H     0.65660   0.10337   0.73172   0.00000  Uiso   1.00
H26    H     0.77771   0.21930   0.91731   0.00000  Uiso   1.00
H27    H     0.74695   0.08608   0.07589   0.00000  Uiso   1.00
H28    H     0.54449   0.07057   0.54734   0.00000  Uiso   1.00
H29    H     0.79989   0.31500   0.93869   0.00000  Uiso   1.00
H30    H     0.73503   0.03408   0.27309   0.00000  Uiso   1.00
H31    H     0.37593   0.17367   0.02622   0.00000  Uiso   1.00
H32    H     0.29606   0.14179   0.85279   0.00000  Uiso   1.00
H33    H     0.41719   0.25772   0.03837   0.00000  Uiso   1.00
H34    H     0.38643   0.12450   0.19695   0.00000  Uiso   1.00
H35    H     0.25187   0.10175   0.64560   0.00000  Uiso   1.00
H36    H     0.50728   0.34619   0.03695   0.00000  Uiso   1.00
H37    H     0.44241   0.06527   0.37135   0.00000  Uiso   1.00
O38    O     0.35182   0.06455   0.48030   0.00000  Uiso   1.00
O39    O     0.68690   0.38524   0.99375   0.00000  Uiso   1.00
O40    O     0.60180   0.01668   0.43247   0.00000  Uiso   1.00
N41    N     0.48658   0.08227   0.59428   0.00000  Uiso   1.00
N42    N     0.72536   0.31081   0.96015   0.00000  Uiso   1.00
N43    N     0.66474   0.04818   0.27280   0.00000  Uiso   1.00
N44    N     0.32913   0.09905   0.64715   0.00000  Uiso   1.00
N45    N     0.56791   0.32759   0.01302   0.00000  Uiso   1.00
N46    N     0.50728   0.06496   0.32567   0.00000  Uiso   1.00
C47    C     0.84453   0.87624   0.76638   0.00000  Uiso   1.00
C48    C     0.92112   0.89354   0.68169   0.00000  Uiso   1.00
C49    C     0.89593   0.91303   0.58443   0.00000  Uiso   1.00
C50    C     0.97720   0.92665   0.51800   0.00000  Uiso   1.00
C51    C     0.08050   0.95436   0.38193   0.00000  Uiso   1.00
C52    C     0.87247   0.82766   0.78454   0.00000  Uiso   1.00
C53    C     0.80636   0.79176   0.77376   0.00000  Uiso   1.00
C54    C     0.84668   0.74993   0.79392   0.00000  Uiso   1.00
C55    C     0.87442   0.67536   0.81760   0.00000  Uiso   1.00
C56    C     0.86962   0.90035   0.87060   0.00000  Uiso   1.00
C57    C     0.80111   0.92557   0.93222   0.00000  Uiso   1.00
C58    C     0.83902   0.94494   0.02486   0.00000  Uiso   1.00
C59    C     0.86234   0.98323   0.18217   0.00000  Uiso   1.00
C60    C     0.03367   0.86579   0.82138   0.00000  Uiso   1.00
C61    C     0.02385   0.88786   0.71156   0.00000  Uiso   1.00
C62    C     0.10519   0.90146   0.64527   0.00000  Uiso   1.00
C63    C     0.08012   0.92097   0.54792   0.00000  Uiso   1.00
C64    C     0.97520   0.82198   0.81440   0.00000  Uiso   1.00
C65    C     0.01562   0.78020   0.83460   0.00000  Uiso   1.00
C66    C     0.94960   0.74424   0.82385   0.00000  Uiso   1.00
C67    C     0.97235   0.89468   0.90048   0.00000  Uiso   1.00
C68    C     0.01037   0.91401   0.99305   0.00000  Uiso   1.00
C69    C     0.94194   0.93925   0.05478   0.00000  Uiso   1.00
H70    H     0.76455   0.88065   0.74313   0.00000  Uiso   1.00
H71    H     0.81641   0.91741   0.56134   0.00000  Uiso   1.00
H72    H     0.72686   0.79616   0.75065   0.00000  Uiso   1.00
H73    H     0.72162   0.92995   0.90908   0.00000  Uiso   1.00
H74    H     0.91923   0.95564   0.37294   0.00000  Uiso   1.00
H75    H     0.73039   0.69999   0.77215   0.00000  Uiso   1.00
H76    H     0.71932   0.98211   0.10623   0.00000  Uiso   1.00
H77    H     0.11365   0.86137   0.84463   0.00000  Uiso   1.00
H78    H     0.18468   0.89706   0.66840   0.00000  Uiso   1.00
H79    H     0.09512   0.77582   0.85772   0.00000  Uiso   1.00
H80    H     0.08988   0.90961   0.01614   0.00000  Uiso   1.00
H81    H     0.21813   0.93912   0.45984   0.00000  Uiso   1.00
H82    H     0.02928   0.68347   0.85906   0.00000  Uiso   1.00
H83    H     0.01822   0.96559   0.19312   0.00000  Uiso   1.00
O84    O     0.10910   0.97120   0.29861   0.00000  Uiso   1.00
O85    O     0.86134   0.63580   0.82239   0.00000  Uiso   1.00
O86    O     0.84682   0.00593   0.26067   0.00000  Uiso   1.00
N87    N     0.97982   0.94686   0.41759   0.00000  Uiso   1.00
N88    N     0.80327   0.70784   0.79081   0.00000  Uiso   1.00
N89    N     0.79292   0.97159   0.10315   0.00000  Uiso   1.00
N90    N     0.14066   0.93798   0.46434   0.00000  Uiso   1.00
N91    N     0.96411   0.69896   0.83757   0.00000  Uiso   1.00
N92    N     0.95375   0.96270   0.14991   0.00000  Uiso   1.00
C93    C     0.36060   0.64558   0.56226   0.00000  Uiso   1.00
C94    C     0.44120   0.63223   0.64399   0.00000  Uiso   1.00
C95    C     0.42125   0.61166   0.74216   0.00000  Uiso   1.00
C96    C     0.50554   0.60218   0.80546   0.00000  Uiso   1.00
C97    C     0.61538   0.57983   0.93752   0.00000  Uiso   1.00
C98    C     0.37539   0.69522   0.54317   0.00000  Uiso   1.00
C99    C     0.30011   0.72761   0.55657   0.00000  Uiso   1.00
C100   C     0.32901   0.77115   0.53497   0.00000  Uiso   1.00
C101   C     0.33667   0.84659   0.51044   0.00000  Uiso   1.00
C102   C     0.39210   0.62283   0.45702   0.00000  Uiso   1.00
C103   C     0.33087   0.59437   0.39795   0.00000  Uiso   1.00
C104   C     0.37383   0.57697   0.30381   0.00000  Uiso   1.00
C105   C     0.40744   0.54002   0.14551   0.00000  Uiso   1.00
C106   C     0.54577   0.66532   0.50008   0.00000  Uiso   1.00
C107   C     0.54177   0.64295   0.61021   0.00000  Uiso   1.00
C108   C     0.62612   0.63349   0.67337   0.00000  Uiso   1.00
C109   C     0.60630   0.61291   0.77162   0.00000  Uiso   1.00
C110   C     0.47596   0.70594   0.50940   0.00000  Uiso   1.00
C111   C     0.50498   0.74944   0.48777   0.00000  Uiso   1.00
C112   C     0.42977   0.78189   0.50114   0.00000  Uiso   1.00
C113   C     0.49268   0.63355   0.42324   0.00000  Uiso   1.00
C114   C     0.53574   0.61620   0.32916   0.00000  Uiso   1.00
C115   C     0.47459   0.58771   0.26997   0.00000  Uiso   1.00
H116   H     0.28230   0.63724   0.58855   0.00000  Uiso   1.00
H117   H     0.34340   0.60337   0.76828   0.00000  Uiso   1.00
H118   H     0.22229   0.71930   0.58269   0.00000  Uiso   1.00
H119   H     0.25305   0.58608   0.42411   0.00000  Uiso   1.00
H120   H     0.45551   0.57057   0.95266   0.00000  Uiso   1.00
H121   H     0.20011   0.81500   0.56131   0.00000  Uiso   1.00
H122   H     0.26497   0.53408   0.22691   0.00000  Uiso   1.00
H123   H     0.62407   0.67367   0.47378   0.00000  Uiso   1.00
H124   H     0.70394   0.64179   0.64721   0.00000  Uiso   1.00
H125   H     0.58281   0.75772   0.46163   0.00000  Uiso   1.00
H126   H     0.61357   0.62450   0.30305   0.00000  Uiso   1.00
H127   H     0.74813   0.60175   0.85440   0.00000  Uiso   1.00
H128   H     0.49272   0.84619   0.46305   0.00000  Uiso   1.00
H129   H     0.55759   0.56527   0.12865   0.00000  Uiso   1.00
O130   O     0.64818   0.56455   0.01970   0.00000  Uiso   1.00
O131   O     0.31310   0.88524   0.50625   0.00000  Uiso   1.00
O132   O     0.39820   0.51668   0.06753   0.00000  Uiso   1.00
N133   N     0.51342   0.58227   0.90572   0.00000  Uiso   1.00
N134   N     0.27464   0.81081   0.53985   0.00000  Uiso   1.00
N135   N     0.33526   0.54818   0.22720   0.00000  Uiso   1.00
N136   N     0.67087   0.59905   0.85285   0.00000  Uiso   1.00
N137   N     0.43209   0.82759   0.48698   0.00000  Uiso   1.00
N138   N     0.49272   0.56496   0.17433   0.00000  Uiso   1.00
C139   C     0.15547   0.37624   0.73362   0.00000  Uiso   1.00
C140   C     0.07888   0.39354   0.81831   0.00000  Uiso   1.00
C141   C     0.10407   0.41303   0.91557   0.00000  Uiso   1.00
C142   C     0.02280   0.42665   0.98200   0.00000  Uiso   1.00
C143   C     0.91950   0.45436   0.11807   0.00000  Uiso   1.00
C144   C     0.12753   0.32766   0.71546   0.00000  Uiso   1.00
C145   C     0.19364   0.29176   0.72624   0.00000  Uiso   1.00
C146   C     0.15332   0.24993   0.70608   0.00000  Uiso   1.00
C147   C     0.12558   0.17536   0.68240   0.00000  Uiso   1.00
C148   C     0.13038   0.40035   0.62940   0.00000  Uiso   1.00
C149   C     0.19889   0.42557   0.56778   0.00000  Uiso   1.00
C150   C     0.16098   0.44494   0.47514   0.00000  Uiso   1.00
C151   C     0.13766   0.48323   0.31783   0.00000  Uiso   1.00
C152   C     0.96633   0.36579   0.67862   0.00000  Uiso   1.00
C153   C     0.97615   0.38786   0.78844   0.00000  Uiso   1.00
C154   C     0.89481   0.40146   0.85473   0.00000  Uiso   1.00
C155   C     0.91988   0.42097   0.95208   0.00000  Uiso   1.00
C156   C     0.02480   0.32198   0.68560   0.00000  Uiso   1.00
C157   C     0.98438   0.28020   0.66540   0.00000  Uiso   1.00
C158   C     0.05040   0.24424   0.67615   0.00000  Uiso   1.00
C159   C     0.02765   0.39468   0.59952   0.00000  Uiso   1.00
C160   C     0.98963   0.41401   0.50695   0.00000  Uiso   1.00
C161   C     0.05806   0.43925   0.44522   0.00000  Uiso   1.00
H162   H     0.23545   0.38065   0.75687   0.00000  Uiso   1.00
H163   H     0.18359   0.41741   0.93866   0.00000  Uiso   1.00
H164   H     0.27314   0.29616   0.74935   0.00000  Uiso   1.00
H165   H     0.27838   0.42995   0.59092   0.00000  Uiso   1.00
H166   H     0.08077   0.45564   0.12706   0.00000  Uiso   1.00
H167   H     0.26961   0.19999   0.72785   0.00000  Uiso   1.00
H168   H     0.28068   0.48211   0.39377   0.00000  Uiso   1.00
H169   H     0.88635   0.36137   0.65537   0.00000  Uiso   1.00
H170   H     0.81532   0.39706   0.83160   0.00000  Uiso   1.00
H171   H     0.90488   0.27582   0.64228   0.00000  Uiso   1.00
H172   H     0.91012   0.40961   0.48386   0.00000  Uiso   1.00
H173   H     0.78187   0.43912   0.04016   0.00000  Uiso   1.00
H174   H     0.97072   0.18347   0.64094   0.00000  Uiso   1.00
H175   H     0.98178   0.46559   0.30688   0.00000  Uiso   1.00
O176   O     0.89090   0.47120   0.20139   0.00000  Uiso   1.00
O177   O     0.13866   0.13580   0.67761   0.00000  Uiso   1.00
O178   O     0.15318   0.50593   0.23933   0.00000  Uiso   1.00
N179   N     0.02018   0.44686   0.08241   0.00000  Uiso   1.00
N180   N     0.19673   0.20784   0.70919   0.00000  Uiso   1.00
N181   N     0.20708   0.47159   0.39685   0.00000  Uiso   1.00
N182   N     0.85934   0.43798   0.03566   0.00000  Uiso   1.00
N183   N     0.03589   0.19896   0.66243   0.00000  Uiso   1.00
N184   N     0.04625   0.46270   0.35009   0.00000  Uiso   1.00
C185   C     0.36060   0.85442   0.06226   0.00000  Uiso   1.00
C186   C     0.44120   0.86777   0.14399   0.00000  Uiso   1.00
C187   C     0.42125   0.88834   0.24216   0.00000  Uiso   1.00
C188   C     0.50554   0.89782   0.30546   0.00000  Uiso   1.00
C189   C     0.61538   0.92017   0.43752   0.00000  Uiso   1.00
C190   C     0.37539   0.80478   0.04317   0.00000  Uiso   1.00
C191   C     0.30011   0.77239   0.05657   0.00000  Uiso   1.00
C192   C     0.32901   0.72885   0.03497   0.00000  Uiso   1.00
C193   C     0.33667   0.65341   0.01044   0.00000  Uiso   1.00
C194   C     0.39210   0.87717   0.95702   0.00000  Uiso   1.00
C195   C     0.33087   0.90563   0.89795   0.00000  Uiso   1.00
C196   C     0.37383   0.92303   0.80381   0.00000  Uiso   1.00
C197   C     0.40744   0.95998   0.64551   0.00000  Uiso   1.00
C198   C     0.54577   0.83468   0.00008   0.00000  Uiso   1.00
C199   C     0.54177   0.85705   0.11021   0.00000  Uiso   1.00
C200   C     0.62612   0.86651   0.17337   0.00000  Uiso   1.00
C201   C     0.60630   0.88709   0.27162   0.00000  Uiso   1.00
C202   C     0.47596   0.79406   0.00940   0.00000  Uiso   1.00
C203   C     0.50498   0.75056   0.98777   0.00000  Uiso   1.00
C204   C     0.42977   0.71811   0.00114   0.00000  Uiso   1.00
C205   C     0.49268   0.86645   0.92324   0.00000  Uiso   1.00
C206   C     0.53574   0.88380   0.82916   0.00000  Uiso   1.00
C207   C     0.47459   0.91229   0.76997   0.00000  Uiso   1.00
H208   H     0.28230   0.86276   0.08855   0.00000  Uiso   1.00
H209   H     0.34340   0.89663   0.26828   0.00000  Uiso   1.00
H210   H     0.22229   0.78070   0.08269   0.00000  Uiso   1.00
H211   H     0.25305   0.91392   0.92411   0.00000  Uiso   1.00
H212   H     0.45551   0.92943   0.45266   0.00000  Uiso   1.00
H213   H     0.20011   0.68500   0.06131   0.00000  Uiso   1.00
H214   H     0.26497   0.96592   0.72691   0.00000  Uiso   1.00
H215   H     0.62407   0.82633   0.97378   0.00000  Uiso   1.00
H216   H     0.70394   0.85821   0.14721   0.00000  Uiso   1.00
H217   H     0.58281   0.74228   0.96163   0.00000  Uiso   1.00
H218   H     0.61357   0.87550   0.80305   0.00000  Uiso   1.00
H219   H     0.74813   0.89825   0.35440   0.00000  Uiso   1.00
H220   H     0.49272   0.65381   0.96305   0.00000  Uiso   1.00
H221   H     0.55759   0.93473   0.62865   0.00000  Uiso   1.00
O222   O     0.64818   0.93545   0.51970   0.00000  Uiso   1.00
O223   O     0.31310   0.61476   0.00625   0.00000  Uiso   1.00
O224   O     0.39820   0.98332   0.56753   0.00000  Uiso   1.00
N225   N     0.51342   0.91773   0.40572   0.00000  Uiso   1.00
N226   N     0.27464   0.68919   0.03985   0.00000  Uiso   1.00
N227   N     0.33526   0.95182   0.72720   0.00000  Uiso   1.00
N228   N     0.67087   0.90095   0.35285   0.00000  Uiso   1.00
N229   N     0.43209   0.67241   0.98698   0.00000  Uiso   1.00
N230   N     0.49272   0.93504   0.67433   0.00000  Uiso   1.00
C231   C     0.15547   0.12376   0.23362   0.00000  Uiso   1.00
C232   C     0.07888   0.10646   0.31831   0.00000  Uiso   1.00
C233   C     0.10407   0.08697   0.41557   0.00000  Uiso   1.00
C234   C     0.02280   0.07335   0.48200   0.00000  Uiso   1.00
C235   C     0.91950   0.04564   0.61807   0.00000  Uiso   1.00
C236   C     0.12753   0.17234   0.21546   0.00000  Uiso   1.00
C237   C     0.19364   0.20824   0.22624   0.00000  Uiso   1.00
C238   C     0.15332   0.25007   0.20608   0.00000  Uiso   1.00
C239   C     0.12558   0.32464   0.18240   0.00000  Uiso   1.00
C240   C     0.13038   0.09965   0.12940   0.00000  Uiso   1.00
C241   C     0.19889   0.07443   0.06778   0.00000  Uiso   1.00
C242   C     0.16098   0.05506   0.97514   0.00000  Uiso   1.00
C243   C     0.13766   0.01677   0.81783   0.00000  Uiso   1.00
C244   C     0.96633   0.13421   0.17862   0.00000  Uiso   1.00
C245   C     0.97615   0.11214   0.28844   0.00000  Uiso   1.00
C246   C     0.89481   0.09854   0.35473   0.00000  Uiso   1.00
C247   C     0.91988   0.07903   0.45208   0.00000  Uiso   1.00
C248   C     0.02480   0.17802   0.18560   0.00000  Uiso   1.00
C249   C     0.98438   0.21980   0.16540   0.00000  Uiso   1.00
C250   C     0.05040   0.25576   0.17615   0.00000  Uiso   1.00
C251   C     0.02765   0.10532   0.09952   0.00000  Uiso   1.00
C252   C     0.98963   0.08599   0.00695   0.00000  Uiso   1.00
C253   C     0.05806   0.06075   0.94522   0.00000  Uiso   1.00
H254   H     0.23545   0.11935   0.25687   0.00000  Uiso   1.00
H255   H     0.18359   0.08259   0.43866   0.00000  Uiso   1.00
H256   H     0.27314   0.20384   0.24935   0.00000  Uiso   1.00
H257   H     0.27838   0.07005   0.09092   0.00000  Uiso   1.00
H258   H     0.08077   0.04436   0.62706   0.00000  Uiso   1.00
H259   H     0.26961   0.30001   0.22785   0.00000  Uiso   1.00
H260   H     0.28068   0.01789   0.89377   0.00000  Uiso   1.00
H261   H     0.88635   0.13863   0.15537   0.00000  Uiso   1.00
H262   H     0.81532   0.10294   0.33160   0.00000  Uiso   1.00
H263   H     0.90488   0.22418   0.14228   0.00000  Uiso   1.00
H264   H     0.91012   0.09039   0.98386   0.00000  Uiso   1.00
H265   H     0.78187   0.06088   0.54016   0.00000  Uiso   1.00
H266   H     0.97072   0.31653   0.14094   0.00000  Uiso   1.00
H267   H     0.98178   0.03441   0.80688   0.00000  Uiso   1.00
O268   O     0.89090   0.02880   0.70139   0.00000  Uiso   1.00
O269   O     0.13866   0.36420   0.17761   0.00000  Uiso   1.00
O270   O     0.15318   0.99407   0.73933   0.00000  Uiso   1.00
N271   N     0.02018   0.05314   0.58241   0.00000  Uiso   1.00
N272   N     0.19673   0.29216   0.20919   0.00000  Uiso   1.00
N273   N     0.20708   0.02841   0.89685   0.00000  Uiso   1.00
N274   N     0.85934   0.06202   0.53566   0.00000  Uiso   1.00
N275   N     0.03589   0.30104   0.16243   0.00000  Uiso   1.00
N276   N     0.04625   0.03730   0.85009   0.00000  Uiso   1.00
C277   C     0.63940   0.35442   0.43774   0.00000  Uiso   1.00
C278   C     0.55880   0.36777   0.35601   0.00000  Uiso   1.00
C279   C     0.57875   0.38834   0.25784   0.00000  Uiso   1.00
C280   C     0.49446   0.39782   0.19454   0.00000  Uiso   1.00
C281   C     0.38462   0.42017   0.06248   0.00000  Uiso   1.00
C282   C     0.62461   0.30478   0.45683   0.00000  Uiso   1.00
C283   C     0.69989   0.27239   0.44343   0.00000  Uiso   1.00
C284   C     0.67099   0.22885   0.46503   0.00000  Uiso   1.00
C285   C     0.66333   0.15341   0.48956   0.00000  Uiso   1.00
C286   C     0.60790   0.37717   0.54298   0.00000  Uiso   1.00
C287   C     0.66913   0.40563   0.60205   0.00000  Uiso   1.00
C288   C     0.62617   0.42303   0.69619   0.00000  Uiso   1.00
C289   C     0.59256   0.45998   0.85449   0.00000  Uiso   1.00
C290   C     0.45423   0.33468   0.49992   0.00000  Uiso   1.00
C291   C     0.45823   0.35705   0.38979   0.00000  Uiso   1.00
C292   C     0.37388   0.36651   0.32663   0.00000  Uiso   1.00
C293   C     0.39370   0.38709   0.22838   0.00000  Uiso   1.00
C294   C     0.52404   0.29406   0.49060   0.00000  Uiso   1.00
C295   C     0.49502   0.25056   0.51223   0.00000  Uiso   1.00
C296   C     0.57023   0.21811   0.49886   0.00000  Uiso   1.00
C297   C     0.50732   0.36645   0.57676   0.00000  Uiso   1.00
C298   C     0.46426   0.38380   0.67084   0.00000  Uiso   1.00
C299   C     0.52541   0.41229   0.73003   0.00000  Uiso   1.00
H300   H     0.71770   0.36276   0.41145   0.00000  Uiso   1.00
H301   H     0.65660   0.39663   0.23172   0.00000  Uiso   1.00
H302   H     0.77771   0.28070   0.41731   0.00000  Uiso   1.00
H303   H     0.74695   0.41392   0.57589   0.00000  Uiso   1.00
H304   H     0.54449   0.42943   0.04734   0.00000  Uiso   1.00
H305   H     0.79989   0.18500   0.43869   0.00000  Uiso   1.00
H306   H     0.73503   0.46592   0.77309   0.00000  Uiso   1.00
H307   H     0.37593   0.32633   0.52622   0.00000  Uiso   1.00
H308   H     0.29606   0.35821   0.35279   0.00000  Uiso   1.00
H309   H     0.41719   0.24228   0.53837   0.00000  Uiso   1.00
H310   H     0.38643   0.37550   0.69695   0.00000  Uiso   1.00
H311   H     0.25187   0.39825   0.14560   0.00000  Uiso   1.00
H312   H     0.50728   0.15381   0.53695   0.00000  Uiso   1.00
H313   H     0.44241   0.43473   0.87135   0.00000  Uiso   1.00
O314   O     0.35182   0.43545   0.98030   0.00000  Uiso   1.00
O315   O     0.68690   0.11476   0.49375   0.00000  Uiso   1.00
O316   O     0.60180   0.48332   0.93247   0.00000  Uiso   1.00
N317   N     0.48658   0.41773   0.09428   0.00000  Uiso   1.00
N318   N     0.72536   0.18919   0.46015   0.00000  Uiso   1.00
N319   N     0.66474   0.45182   0.77280   0.00000  Uiso   1.00
N320   N     0.32913   0.40095   0.14715   0.00000  Uiso   1.00
N321   N     0.56791   0.17241   0.51302   0.00000  Uiso   1.00
N322   N     0.50728   0.43504   0.82567   0.00000  Uiso   1.00
C323   C     0.84453   0.62376   0.26638   0.00000  Uiso   1.00
C324   C     0.92112   0.60646   0.18169   0.00000  Uiso   1.00
C325   C     0.89593   0.58697   0.08443   0.00000  Uiso   1.00
C326   C     0.97720   0.57335   0.01800   0.00000  Uiso   1.00
C327   C     0.08050   0.54564   0.88193   0.00000  Uiso   1.00
C328   C     0.87247   0.67234   0.28454   0.00000  Uiso   1.00
C329   C     0.80636   0.70824   0.27376   0.00000  Uiso   1.00
C330   C     0.84668   0.75007   0.29392   0.00000  Uiso   1.00
C331   C     0.87442   0.82464   0.31760   0.00000  Uiso   1.00
C332   C     0.86962   0.59965   0.37060   0.00000  Uiso   1.00
C333   C     0.80111   0.57443   0.43222   0.00000  Uiso   1.00
C334   C     0.83902   0.55506   0.52486   0.00000  Uiso   1.00
C335   C     0.86234   0.51677   0.68217   0.00000  Uiso   1.00
C336   C     0.03367   0.63421   0.32138   0.00000  Uiso   1.00
C337   C     0.02385   0.61214   0.21156   0.00000  Uiso   1.00
C338   C     0.10519   0.59854   0.14527   0.00000  Uiso   1.00
C339   C     0.08012   0.57903   0.04792   0.00000  Uiso   1.00
C340   C     0.97520   0.67802   0.31440   0.00000  Uiso   1.00
C341   C     0.01562   0.71980   0.33460   0.00000  Uiso   1.00
C342   C     0.94960   0.75576   0.32385   0.00000  Uiso   1.00
C343   C     0.97235   0.60532   0.40048   0.00000  Uiso   1.00
C344   C     0.01037   0.58599   0.49305   0.00000  Uiso   1.00
C345   C     0.94194   0.56075   0.55478   0.00000  Uiso   1.00
H346   H     0.76455   0.61935   0.24313   0.00000  Uiso   1.00
H347   H     0.81641   0.58259   0.06134   0.00000  Uiso   1.00
H348   H     0.72686   0.70384   0.25065   0.00000  Uiso   1.00
H349   H     0.72162   0.57005   0.40908   0.00000  Uiso   1.00
H350   H     0.91923   0.54436   0.87294   0.00000  Uiso   1.00
H351   H     0.73039   0.80001   0.27215   0.00000  Uiso   1.00
H352   H     0.71932   0.51789   0.60623   0.00000  Uiso   1.00
H353   H     0.11365   0.63863   0.34463   0.00000  Uiso   1.00
H354   H     0.18468   0.60294   0.16840   0.00000  Uiso   1.00
H355   H     0.09512   0.72418   0.35772   0.00000  Uiso   1.00
H356   H     0.08988   0.59039   0.51614   0.00000  Uiso   1.00
H357   H     0.21813   0.56088   0.95984   0.00000  Uiso   1.00
H358   H     0.02928   0.81653   0.35906   0.00000  Uiso   1.00
H359   H     0.01822   0.53441   0.69312   0.00000  Uiso   1.00
O360   O     0.10910   0.52880   0.79861   0.00000  Uiso   1.00
O361   O     0.86134   0.86420   0.32239   0.00000  Uiso   1.00
O362   O     0.84682   0.49407   0.76067   0.00000  Uiso   1.00
N363   N     0.97982   0.55314   0.91759   0.00000  Uiso   1.00
N364   N     0.80327   0.79216   0.29081   0.00000  Uiso   1.00
N365   N     0.79292   0.52841   0.60315   0.00000  Uiso   1.00
N366   N     0.14066   0.56202   0.96434   0.00000  Uiso   1.00
N367   N     0.96411   0.80104   0.33757   0.00000  Uiso   1.00
N368   N     0.95375   0.53730   0.64991   0.00000  Uiso   1.00
