data_job_04019
_audit_creation_date              2018-12-19
_audit_creation_method            'Materials Studio'
_symmetry_space_group_name_H-M    'P1'
_symmetry_Int_Tables_number       1
_symmetry_cell_setting            triclinic
loop_
_symmetry_equiv_pos_as_xyz
  x,y,z
_cell_length_a                    22.6015
_cell_length_b                    22.6015
_cell_length_c                    10.0448
_cell_angle_alpha                 90.0000
_cell_angle_beta                  90.0000
_cell_angle_gamma                 90.0000
loop_
_atom_site_label
_atom_site_type_symbol
_atom_site_fract_x
_atom_site_fract_y
_atom_site_fract_z
_atom_site_U_iso_or_equiv
_atom_site_adp_type
_atom_site_occupancy
C1     C     0.75985   0.89804   0.11120   0.00000  Uiso   1.00
C2     C     0.71017   0.91074   0.20987   0.00000  Uiso   1.00
C3     C     0.71655   0.91616   0.34674   0.00000  Uiso   1.00
C4     C     0.66570   0.92783   0.41971   0.00000  Uiso   1.00
C5     C     0.59695   0.94660   0.58233   0.00000  Uiso   1.00
C6     C     0.74129   0.84256   0.03553   0.00000  Uiso   1.00
C7     C     0.77385   0.79068   0.02581   0.00000  Uiso   1.00
C8     C     0.74919   0.74496   0.95200   0.00000  Uiso   1.00
C9     C     0.72879   0.65791   0.84388   0.00000  Uiso   1.00
C10    C     0.75842   0.94839   0.01021   0.00000  Uiso   1.00
C11    C     0.80538   0.98547   0.97916   0.00000  Uiso   1.00
C12    C     0.79515   0.02884   0.88400   0.00000  Uiso   1.00
C13    C     0.80134   0.10610   0.73656   0.00000  Uiso   1.00
C14    C     0.65820   0.90911   0.99740   0.00000  Uiso   1.00
C15    C     0.65496   0.91675   0.14805   0.00000  Uiso   1.00
C16    C     0.60408   0.92841   0.22083   0.00000  Uiso   1.00
C17    C     0.61038   0.93385   0.35778   0.00000  Uiso   1.00
C18    C     0.68608   0.84858   0.97372   0.00000  Uiso   1.00
C19    C     0.66138   0.80293   0.89990   0.00000  Uiso   1.00
C20    C     0.69388   0.75098   0.89007   0.00000  Uiso   1.00
C21    C     0.70321   0.95440   0.94839   0.00000  Uiso   1.00
C22    C     0.69291   0.99772   0.85326   0.00000  Uiso   1.00
C23    C     0.73984   0.03486   0.82207   0.00000  Uiso   1.00
H24    H     0.80283   0.89335   0.15932   0.00000  Uiso   1.00
H25    H     0.75928   0.91150   0.39454   0.00000  Uiso   1.00
H26    H     0.81657   0.78604   0.07364   0.00000  Uiso   1.00
H27    H     0.84810   0.98080   0.02701   0.00000  Uiso   1.00
H28    H     0.68665   0.93425   0.62807   0.00000  Uiso   1.00
H29    H     0.80745   0.66972   0.95141   0.00000  Uiso   1.00
H30    H     0.87393   0.08041   0.85307   0.00000  Uiso   1.00
H31    H     0.61521   0.91379   0.94927   0.00000  Uiso   1.00
H32    H     0.56136   0.93306   0.17297   0.00000  Uiso   1.00
H33    H     0.61865   0.80760   0.85207   0.00000  Uiso   1.00
H34    H     0.65018   0.00236   0.80544   0.00000  Uiso   1.00
H35    H     0.52601   0.95175   0.44824   0.00000  Uiso   1.00
H36    H     0.64682   0.68721   0.77157   0.00000  Uiso   1.00
H37    H     0.71329   0.09791   0.67323   0.00000  Uiso   1.00
O38    O     0.57429   0.95529   0.68910   0.00000  Uiso   1.00
O39    O     0.73279   0.60823   0.80133   0.00000  Uiso   1.00
O40    O     0.82001   0.14706   0.67232   0.00000  Uiso   1.00
N41    N     0.65623   0.93574   0.55504   0.00000  Uiso   1.00
N42    N     0.76918   0.68841   0.92242   0.00000  Uiso   1.00
N43    N     0.83133   0.07236   0.83046   0.00000  Uiso   1.00
N44    N     0.56979   0.94515   0.45828   0.00000  Uiso   1.00
N45    N     0.68274   0.69782   0.82566   0.00000  Uiso   1.00
N46    N     0.74489   0.08178   0.73369   0.00000  Uiso   1.00
C47    C     0.24015   0.10196   0.11120   0.00000  Uiso   1.00
C48    C     0.28983   0.08926   0.20987   0.00000  Uiso   1.00
C49    C     0.28345   0.08384   0.34674   0.00000  Uiso   1.00
C50    C     0.33430   0.07217   0.41971   0.00000  Uiso   1.00
C51    C     0.40305   0.05340   0.58233   0.00000  Uiso   1.00
C52    C     0.25871   0.15744   0.03553   0.00000  Uiso   1.00
C53    C     0.22615   0.20932   0.02581   0.00000  Uiso   1.00
C54    C     0.25081   0.25504   0.95200   0.00000  Uiso   1.00
C55    C     0.27121   0.34209   0.84388   0.00000  Uiso   1.00
C56    C     0.24158   0.05161   0.01021   0.00000  Uiso   1.00
C57    C     0.19462   0.01453   0.97916   0.00000  Uiso   1.00
C58    C     0.20485   0.97116   0.88400   0.00000  Uiso   1.00
C59    C     0.19866   0.89390   0.73656   0.00000  Uiso   1.00
C60    C     0.34180   0.09089   0.99740   0.00000  Uiso   1.00
C61    C     0.34504   0.08325   0.14805   0.00000  Uiso   1.00
C62    C     0.39592   0.07159   0.22083   0.00000  Uiso   1.00
C63    C     0.38962   0.06615   0.35778   0.00000  Uiso   1.00
C64    C     0.31392   0.15142   0.97372   0.00000  Uiso   1.00
C65    C     0.33862   0.19707   0.89990   0.00000  Uiso   1.00
C66    C     0.30612   0.24902   0.89007   0.00000  Uiso   1.00
C67    C     0.29679   0.04560   0.94839   0.00000  Uiso   1.00
C68    C     0.30709   0.00228   0.85326   0.00000  Uiso   1.00
C69    C     0.26016   0.96514   0.82207   0.00000  Uiso   1.00
H70    H     0.19717   0.10665   0.15932   0.00000  Uiso   1.00
H71    H     0.24072   0.08850   0.39454   0.00000  Uiso   1.00
H72    H     0.18343   0.21396   0.07364   0.00000  Uiso   1.00
H73    H     0.15190   0.01920   0.02701   0.00000  Uiso   1.00
H74    H     0.31335   0.06575   0.62807   0.00000  Uiso   1.00
H75    H     0.19255   0.33028   0.95141   0.00000  Uiso   1.00
H76    H     0.12607   0.91959   0.85307   0.00000  Uiso   1.00
H77    H     0.38479   0.08621   0.94927   0.00000  Uiso   1.00
H78    H     0.43864   0.06694   0.17297   0.00000  Uiso   1.00
H79    H     0.38135   0.19240   0.85207   0.00000  Uiso   1.00
H80    H     0.34982   0.99764   0.80544   0.00000  Uiso   1.00
H81    H     0.47399   0.04825   0.44824   0.00000  Uiso   1.00
H82    H     0.35318   0.31279   0.77157   0.00000  Uiso   1.00
H83    H     0.28671   0.90209   0.67323   0.00000  Uiso   1.00
O84    O     0.42571   0.04471   0.68910   0.00000  Uiso   1.00
O85    O     0.26721   0.39177   0.80133   0.00000  Uiso   1.00
O86    O     0.17999   0.85294   0.67232   0.00000  Uiso   1.00
N87    N     0.34377   0.06426   0.55504   0.00000  Uiso   1.00
N88    N     0.23082   0.31159   0.92242   0.00000  Uiso   1.00
N89    N     0.16867   0.92764   0.83046   0.00000  Uiso   1.00
N90    N     0.43021   0.05485   0.45828   0.00000  Uiso   1.00
N91    N     0.31726   0.30218   0.82566   0.00000  Uiso   1.00
N92    N     0.25511   0.91822   0.73369   0.00000  Uiso   1.00
C93    C     0.60196   0.25985   0.61120   0.00000  Uiso   1.00
C94    C     0.58926   0.21017   0.70987   0.00000  Uiso   1.00
C95    C     0.58384   0.21655   0.84674   0.00000  Uiso   1.00
C96    C     0.57217   0.16570   0.91971   0.00000  Uiso   1.00
C97    C     0.55340   0.09695   0.08233   0.00000  Uiso   1.00
C98    C     0.65744   0.24129   0.53553   0.00000  Uiso   1.00
C99    C     0.70932   0.27385   0.52581   0.00000  Uiso   1.00
C100   C     0.75504   0.24919   0.45200   0.00000  Uiso   1.00
C101   C     0.84209   0.22879   0.34388   0.00000  Uiso   1.00
C102   C     0.55161   0.25842   0.51021   0.00000  Uiso   1.00
C103   C     0.51453   0.30538   0.47916   0.00000  Uiso   1.00
C104   C     0.47116   0.29515   0.38400   0.00000  Uiso   1.00
C105   C     0.39390   0.30134   0.23656   0.00000  Uiso   1.00
C106   C     0.59089   0.15820   0.49740   0.00000  Uiso   1.00
C107   C     0.58325   0.15496   0.64805   0.00000  Uiso   1.00
C108   C     0.57159   0.10408   0.72083   0.00000  Uiso   1.00
C109   C     0.56615   0.11038   0.85778   0.00000  Uiso   1.00
C110   C     0.65142   0.18608   0.47372   0.00000  Uiso   1.00
C111   C     0.69707   0.16138   0.39990   0.00000  Uiso   1.00
C112   C     0.74902   0.19388   0.39007   0.00000  Uiso   1.00
C113   C     0.54560   0.20321   0.44839   0.00000  Uiso   1.00
C114   C     0.50228   0.19291   0.35326   0.00000  Uiso   1.00
C115   C     0.46514   0.23984   0.32207   0.00000  Uiso   1.00
H116   H     0.60665   0.30283   0.65932   0.00000  Uiso   1.00
H117   H     0.58850   0.25928   0.89454   0.00000  Uiso   1.00
H118   H     0.71396   0.31657   0.57364   0.00000  Uiso   1.00
H119   H     0.51920   0.34810   0.52701   0.00000  Uiso   1.00
H120   H     0.56575   0.18665   0.12807   0.00000  Uiso   1.00
H121   H     0.83028   0.30745   0.45141   0.00000  Uiso   1.00
H122   H     0.41959   0.37393   0.35307   0.00000  Uiso   1.00
H123   H     0.58621   0.11521   0.44927   0.00000  Uiso   1.00
H124   H     0.56694   0.06136   0.67297   0.00000  Uiso   1.00
H125   H     0.69240   0.11865   0.35207   0.00000  Uiso   1.00
H126   H     0.49764   0.15018   0.30544   0.00000  Uiso   1.00
H127   H     0.54825   0.02601   0.94824   0.00000  Uiso   1.00
H128   H     0.81279   0.14682   0.27157   0.00000  Uiso   1.00
H129   H     0.40209   0.21329   0.17323   0.00000  Uiso   1.00
O130   O     0.54471   0.07429   0.18910   0.00000  Uiso   1.00
O131   O     0.89177   0.23279   0.30133   0.00000  Uiso   1.00
O132   O     0.35294   0.32001   0.17232   0.00000  Uiso   1.00
N133   N     0.56426   0.15623   0.05504   0.00000  Uiso   1.00
N134   N     0.81159   0.26918   0.42242   0.00000  Uiso   1.00
N135   N     0.42764   0.33133   0.33046   0.00000  Uiso   1.00
N136   N     0.55485   0.06979   0.95828   0.00000  Uiso   1.00
N137   N     0.80218   0.18274   0.32566   0.00000  Uiso   1.00
N138   N     0.41822   0.24489   0.23369   0.00000  Uiso   1.00
C139   C     0.39804   0.74015   0.61120   0.00000  Uiso   1.00
C140   C     0.41074   0.78983   0.70987   0.00000  Uiso   1.00
C141   C     0.41616   0.78345   0.84674   0.00000  Uiso   1.00
C142   C     0.42783   0.83430   0.91971   0.00000  Uiso   1.00
C143   C     0.44660   0.90305   0.08233   0.00000  Uiso   1.00
C144   C     0.34256   0.75871   0.53553   0.00000  Uiso   1.00
C145   C     0.29068   0.72615   0.52581   0.00000  Uiso   1.00
C146   C     0.24496   0.75081   0.45200   0.00000  Uiso   1.00
C147   C     0.15791   0.77121   0.34388   0.00000  Uiso   1.00
C148   C     0.44839   0.74158   0.51021   0.00000  Uiso   1.00
C149   C     0.48547   0.69462   0.47916   0.00000  Uiso   1.00
C150   C     0.52884   0.70485   0.38400   0.00000  Uiso   1.00
C151   C     0.60610   0.69866   0.23656   0.00000  Uiso   1.00
C152   C     0.40911   0.84180   0.49740   0.00000  Uiso   1.00
C153   C     0.41675   0.84504   0.64805   0.00000  Uiso   1.00
C154   C     0.42841   0.89592   0.72083   0.00000  Uiso   1.00
C155   C     0.43385   0.88962   0.85778   0.00000  Uiso   1.00
C156   C     0.34858   0.81392   0.47372   0.00000  Uiso   1.00
C157   C     0.30293   0.83862   0.39990   0.00000  Uiso   1.00
C158   C     0.25098   0.80612   0.39007   0.00000  Uiso   1.00
C159   C     0.45440   0.79679   0.44839   0.00000  Uiso   1.00
C160   C     0.49772   0.80709   0.35326   0.00000  Uiso   1.00
C161   C     0.53486   0.76016   0.32207   0.00000  Uiso   1.00
H162   H     0.39335   0.69717   0.65932   0.00000  Uiso   1.00
H163   H     0.41150   0.74072   0.89454   0.00000  Uiso   1.00
H164   H     0.28604   0.68343   0.57364   0.00000  Uiso   1.00
H165   H     0.48080   0.65190   0.52701   0.00000  Uiso   1.00
H166   H     0.43425   0.81335   0.12807   0.00000  Uiso   1.00
H167   H     0.16972   0.69255   0.45141   0.00000  Uiso   1.00
H168   H     0.58041   0.62607   0.35307   0.00000  Uiso   1.00
H169   H     0.41379   0.88479   0.44927   0.00000  Uiso   1.00
H170   H     0.43306   0.93864   0.67297   0.00000  Uiso   1.00
H171   H     0.30760   0.88135   0.35207   0.00000  Uiso   1.00
H172   H     0.50236   0.84982   0.30544   0.00000  Uiso   1.00
H173   H     0.45175   0.97399   0.94824   0.00000  Uiso   1.00
H174   H     0.18721   0.85318   0.27157   0.00000  Uiso   1.00
H175   H     0.59791   0.78671   0.17323   0.00000  Uiso   1.00
O176   O     0.45529   0.92571   0.18910   0.00000  Uiso   1.00
O177   O     0.10823   0.76721   0.30133   0.00000  Uiso   1.00
O178   O     0.64706   0.67999   0.17232   0.00000  Uiso   1.00
N179   N     0.43574   0.84377   0.05504   0.00000  Uiso   1.00
N180   N     0.18841   0.73082   0.42242   0.00000  Uiso   1.00
N181   N     0.57236   0.66867   0.33046   0.00000  Uiso   1.00
N182   N     0.44515   0.93021   0.95828   0.00000  Uiso   1.00
N183   N     0.19782   0.81726   0.32566   0.00000  Uiso   1.00
N184   N     0.58178   0.75511   0.23369   0.00000  Uiso   1.00
C185   C     0.74015   0.60196   0.38880   0.00000  Uiso   1.00
C186   C     0.78983   0.58926   0.29013   0.00000  Uiso   1.00
C187   C     0.78345   0.58384   0.15326   0.00000  Uiso   1.00
C188   C     0.83430   0.57217   0.08029   0.00000  Uiso   1.00
C189   C     0.90305   0.55340   0.91767   0.00000  Uiso   1.00
C190   C     0.75871   0.65744   0.46447   0.00000  Uiso   1.00
C191   C     0.72615   0.70932   0.47419   0.00000  Uiso   1.00
C192   C     0.75081   0.75504   0.54800   0.00000  Uiso   1.00
C193   C     0.77121   0.84209   0.65612   0.00000  Uiso   1.00
C194   C     0.74158   0.55161   0.48979   0.00000  Uiso   1.00
C195   C     0.69462   0.51453   0.52084   0.00000  Uiso   1.00
C196   C     0.70485   0.47116   0.61600   0.00000  Uiso   1.00
C197   C     0.69866   0.39390   0.76344   0.00000  Uiso   1.00
C198   C     0.84180   0.59089   0.50260   0.00000  Uiso   1.00
C199   C     0.84504   0.58325   0.35195   0.00000  Uiso   1.00
C200   C     0.89592   0.57159   0.27917   0.00000  Uiso   1.00
C201   C     0.88962   0.56615   0.14222   0.00000  Uiso   1.00
C202   C     0.81392   0.65142   0.52628   0.00000  Uiso   1.00
C203   C     0.83862   0.69707   0.60010   0.00000  Uiso   1.00
C204   C     0.80612   0.74902   0.60993   0.00000  Uiso   1.00
C205   C     0.79679   0.54560   0.55161   0.00000  Uiso   1.00
C206   C     0.80709   0.50228   0.64674   0.00000  Uiso   1.00
C207   C     0.76016   0.46514   0.67793   0.00000  Uiso   1.00
H208   H     0.69717   0.60665   0.34068   0.00000  Uiso   1.00
H209   H     0.74072   0.58850   0.10546   0.00000  Uiso   1.00
H210   H     0.68343   0.71396   0.42636   0.00000  Uiso   1.00
H211   H     0.65190   0.51920   0.47299   0.00000  Uiso   1.00
H212   H     0.81335   0.56575   0.87193   0.00000  Uiso   1.00
H213   H     0.69255   0.83028   0.54859   0.00000  Uiso   1.00
H214   H     0.62607   0.41959   0.64693   0.00000  Uiso   1.00
H215   H     0.88479   0.58621   0.55073   0.00000  Uiso   1.00
H216   H     0.93864   0.56694   0.32703   0.00000  Uiso   1.00
H217   H     0.88135   0.69240   0.64793   0.00000  Uiso   1.00
H218   H     0.84982   0.49764   0.69456   0.00000  Uiso   1.00
H219   H     0.97399   0.54825   0.05176   0.00000  Uiso   1.00
H220   H     0.85318   0.81279   0.72843   0.00000  Uiso   1.00
H221   H     0.78671   0.40209   0.82677   0.00000  Uiso   1.00
O222   O     0.92571   0.54471   0.81090   0.00000  Uiso   1.00
O223   O     0.76721   0.89177   0.69867   0.00000  Uiso   1.00
O224   O     0.67999   0.35294   0.82768   0.00000  Uiso   1.00
N225   N     0.84377   0.56426   0.94496   0.00000  Uiso   1.00
N226   N     0.73082   0.81159   0.57758   0.00000  Uiso   1.00
N227   N     0.66867   0.42764   0.66954   0.00000  Uiso   1.00
N228   N     0.93021   0.55485   0.04172   0.00000  Uiso   1.00
N229   N     0.81726   0.80218   0.67434   0.00000  Uiso   1.00
N230   N     0.75511   0.41822   0.76631   0.00000  Uiso   1.00
C231   C     0.25985   0.39804   0.38880   0.00000  Uiso   1.00
C232   C     0.21017   0.41074   0.29013   0.00000  Uiso   1.00
C233   C     0.21655   0.41616   0.15326   0.00000  Uiso   1.00
C234   C     0.16570   0.42783   0.08029   0.00000  Uiso   1.00
C235   C     0.09695   0.44660   0.91767   0.00000  Uiso   1.00
C236   C     0.24129   0.34256   0.46447   0.00000  Uiso   1.00
C237   C     0.27385   0.29068   0.47419   0.00000  Uiso   1.00
C238   C     0.24919   0.24496   0.54800   0.00000  Uiso   1.00
C239   C     0.22879   0.15791   0.65612   0.00000  Uiso   1.00
C240   C     0.25842   0.44839   0.48979   0.00000  Uiso   1.00
C241   C     0.30538   0.48547   0.52084   0.00000  Uiso   1.00
C242   C     0.29515   0.52884   0.61600   0.00000  Uiso   1.00
C243   C     0.30134   0.60610   0.76344   0.00000  Uiso   1.00
C244   C     0.15820   0.40911   0.50260   0.00000  Uiso   1.00
C245   C     0.15496   0.41675   0.35195   0.00000  Uiso   1.00
C246   C     0.10408   0.42841   0.27917   0.00000  Uiso   1.00
C247   C     0.11038   0.43385   0.14222   0.00000  Uiso   1.00
C248   C     0.18608   0.34858   0.52628   0.00000  Uiso   1.00
C249   C     0.16138   0.30293   0.60010   0.00000  Uiso   1.00
C250   C     0.19388   0.25098   0.60993   0.00000  Uiso   1.00
C251   C     0.20321   0.45440   0.55161   0.00000  Uiso   1.00
C252   C     0.19291   0.49772   0.64674   0.00000  Uiso   1.00
C253   C     0.23984   0.53486   0.67793   0.00000  Uiso   1.00
H254   H     0.30283   0.39335   0.34068   0.00000  Uiso   1.00
H255   H     0.25928   0.41150   0.10546   0.00000  Uiso   1.00
H256   H     0.31657   0.28604   0.42636   0.00000  Uiso   1.00
H257   H     0.34810   0.48080   0.47299   0.00000  Uiso   1.00
H258   H     0.18665   0.43425   0.87193   0.00000  Uiso   1.00
H259   H     0.30745   0.16972   0.54859   0.00000  Uiso   1.00
H260   H     0.37393   0.58041   0.64693   0.00000  Uiso   1.00
H261   H     0.11521   0.41379   0.55073   0.00000  Uiso   1.00
H262   H     0.06136   0.43306   0.32703   0.00000  Uiso   1.00
H263   H     0.11865   0.30760   0.64793   0.00000  Uiso   1.00
H264   H     0.15018   0.50236   0.69456   0.00000  Uiso   1.00
H265   H     0.02601   0.45175   0.05176   0.00000  Uiso   1.00
H266   H     0.14682   0.18721   0.72843   0.00000  Uiso   1.00
H267   H     0.21329   0.59791   0.82677   0.00000  Uiso   1.00
O268   O     0.07429   0.45529   0.81090   0.00000  Uiso   1.00
O269   O     0.23279   0.10823   0.69867   0.00000  Uiso   1.00
O270   O     0.32001   0.64706   0.82768   0.00000  Uiso   1.00
N271   N     0.15623   0.43574   0.94496   0.00000  Uiso   1.00
N272   N     0.26918   0.18841   0.57758   0.00000  Uiso   1.00
N273   N     0.33133   0.57236   0.66954   0.00000  Uiso   1.00
N274   N     0.06979   0.44515   0.04172   0.00000  Uiso   1.00
N275   N     0.18274   0.19782   0.67434   0.00000  Uiso   1.00
N276   N     0.24489   0.58178   0.76631   0.00000  Uiso   1.00
C277   C     0.89804   0.24015   0.88880   0.00000  Uiso   1.00
C278   C     0.91074   0.28983   0.79013   0.00000  Uiso   1.00
C279   C     0.91616   0.28345   0.65326   0.00000  Uiso   1.00
C280   C     0.92783   0.33430   0.58029   0.00000  Uiso   1.00
C281   C     0.94660   0.40305   0.41767   0.00000  Uiso   1.00
C282   C     0.84256   0.25871   0.96447   0.00000  Uiso   1.00
C283   C     0.79068   0.22615   0.97419   0.00000  Uiso   1.00
C284   C     0.74496   0.25081   0.04800   0.00000  Uiso   1.00
C285   C     0.65791   0.27121   0.15612   0.00000  Uiso   1.00
C286   C     0.94839   0.24158   0.98979   0.00000  Uiso   1.00
C287   C     0.98547   0.19462   0.02084   0.00000  Uiso   1.00
C288   C     0.02884   0.20485   0.11600   0.00000  Uiso   1.00
C289   C     0.10610   0.19866   0.26344   0.00000  Uiso   1.00
C290   C     0.90911   0.34180   0.00260   0.00000  Uiso   1.00
C291   C     0.91675   0.34504   0.85195   0.00000  Uiso   1.00
C292   C     0.92841   0.39592   0.77917   0.00000  Uiso   1.00
C293   C     0.93385   0.38962   0.64222   0.00000  Uiso   1.00
C294   C     0.84858   0.31392   0.02628   0.00000  Uiso   1.00
C295   C     0.80293   0.33862   0.10010   0.00000  Uiso   1.00
C296   C     0.75098   0.30612   0.10993   0.00000  Uiso   1.00
C297   C     0.95440   0.29679   0.05161   0.00000  Uiso   1.00
C298   C     0.99772   0.30709   0.14674   0.00000  Uiso   1.00
C299   C     0.03486   0.26016   0.17793   0.00000  Uiso   1.00
H300   H     0.89335   0.19717   0.84068   0.00000  Uiso   1.00
H301   H     0.91150   0.24072   0.60546   0.00000  Uiso   1.00
H302   H     0.78604   0.18343   0.92636   0.00000  Uiso   1.00
H303   H     0.98080   0.15190   0.97299   0.00000  Uiso   1.00
H304   H     0.93425   0.31335   0.37193   0.00000  Uiso   1.00
H305   H     0.66972   0.19255   0.04859   0.00000  Uiso   1.00
H306   H     0.08041   0.12607   0.14693   0.00000  Uiso   1.00
H307   H     0.91379   0.38479   0.05073   0.00000  Uiso   1.00
H308   H     0.93306   0.43864   0.82703   0.00000  Uiso   1.00
H309   H     0.80760   0.38135   0.14793   0.00000  Uiso   1.00
H310   H     0.00236   0.34982   0.19456   0.00000  Uiso   1.00
H311   H     0.95175   0.47399   0.55176   0.00000  Uiso   1.00
H312   H     0.68721   0.35318   0.22843   0.00000  Uiso   1.00
H313   H     0.09791   0.28671   0.32677   0.00000  Uiso   1.00
O314   O     0.95529   0.42571   0.31090   0.00000  Uiso   1.00
O315   O     0.60823   0.26721   0.19867   0.00000  Uiso   1.00
O316   O     0.14706   0.17999   0.32768   0.00000  Uiso   1.00
N317   N     0.93574   0.34377   0.44496   0.00000  Uiso   1.00
N318   N     0.68841   0.23082   0.07758   0.00000  Uiso   1.00
N319   N     0.07236   0.16867   0.16954   0.00000  Uiso   1.00
N320   N     0.94515   0.43021   0.54172   0.00000  Uiso   1.00
N321   N     0.69782   0.31726   0.17434   0.00000  Uiso   1.00
N322   N     0.08178   0.25511   0.26631   0.00000  Uiso   1.00
C323   C     0.10196   0.75985   0.88880   0.00000  Uiso   1.00
C324   C     0.08926   0.71017   0.79013   0.00000  Uiso   1.00
C325   C     0.08384   0.71655   0.65326   0.00000  Uiso   1.00
C326   C     0.07217   0.66570   0.58029   0.00000  Uiso   1.00
C327   C     0.05340   0.59695   0.41767   0.00000  Uiso   1.00
C328   C     0.15744   0.74129   0.96447   0.00000  Uiso   1.00
C329   C     0.20932   0.77385   0.97419   0.00000  Uiso   1.00
C330   C     0.25504   0.74919   0.04800   0.00000  Uiso   1.00
C331   C     0.34209   0.72879   0.15612   0.00000  Uiso   1.00
C332   C     0.05161   0.75842   0.98979   0.00000  Uiso   1.00
C333   C     0.01453   0.80538   0.02084   0.00000  Uiso   1.00
C334   C     0.97116   0.79515   0.11600   0.00000  Uiso   1.00
C335   C     0.89390   0.80134   0.26344   0.00000  Uiso   1.00
C336   C     0.09089   0.65820   0.00260   0.00000  Uiso   1.00
C337   C     0.08325   0.65496   0.85195   0.00000  Uiso   1.00
C338   C     0.07159   0.60408   0.77917   0.00000  Uiso   1.00
C339   C     0.06615   0.61038   0.64222   0.00000  Uiso   1.00
C340   C     0.15142   0.68608   0.02628   0.00000  Uiso   1.00
C341   C     0.19707   0.66138   0.10010   0.00000  Uiso   1.00
C342   C     0.24902   0.69388   0.10993   0.00000  Uiso   1.00
C343   C     0.04560   0.70321   0.05161   0.00000  Uiso   1.00
C344   C     0.00228   0.69291   0.14674   0.00000  Uiso   1.00
C345   C     0.96514   0.73984   0.17793   0.00000  Uiso   1.00
H346   H     0.10665   0.80283   0.84068   0.00000  Uiso   1.00
H347   H     0.08850   0.75928   0.60546   0.00000  Uiso   1.00
H348   H     0.21396   0.81657   0.92636   0.00000  Uiso   1.00
H349   H     0.01920   0.84810   0.97299   0.00000  Uiso   1.00
H350   H     0.06575   0.68665   0.37193   0.00000  Uiso   1.00
H351   H     0.33028   0.80745   0.04859   0.00000  Uiso   1.00
H352   H     0.91959   0.87393   0.14693   0.00000  Uiso   1.00
H353   H     0.08621   0.61521   0.05073   0.00000  Uiso   1.00
H354   H     0.06694   0.56136   0.82703   0.00000  Uiso   1.00
H355   H     0.19240   0.61865   0.14793   0.00000  Uiso   1.00
H356   H     0.99764   0.65018   0.19456   0.00000  Uiso   1.00
H357   H     0.04825   0.52601   0.55176   0.00000  Uiso   1.00
H358   H     0.31279   0.64682   0.22843   0.00000  Uiso   1.00
H359   H     0.90209   0.71329   0.32677   0.00000  Uiso   1.00
O360   O     0.04471   0.57429   0.31090   0.00000  Uiso   1.00
O361   O     0.39177   0.73279   0.19867   0.00000  Uiso   1.00
O362   O     0.85294   0.82001   0.32768   0.00000  Uiso   1.00
N363   N     0.06426   0.65623   0.44496   0.00000  Uiso   1.00
N364   N     0.31159   0.76918   0.07758   0.00000  Uiso   1.00
N365   N     0.92764   0.83133   0.16954   0.00000  Uiso   1.00
N366   N     0.05485   0.56979   0.54172   0.00000  Uiso   1.00
N367   N     0.30218   0.68274   0.17434   0.00000  Uiso   1.00
N368   N     0.91822   0.74489   0.26631   0.00000  Uiso   1.00
