data_job_04211
_audit_creation_date              2018-12-19
_audit_creation_method            'Materials Studio'
_symmetry_space_group_name_H-M    'P1'
_symmetry_Int_Tables_number       1
_symmetry_cell_setting            triclinic
loop_
_symmetry_equiv_pos_as_xyz
  x,y,z
_cell_length_a                    26.7998
_cell_length_b                    26.7998
_cell_length_c                    7.4221
_cell_angle_alpha                 90.0000
_cell_angle_beta                  90.0000
_cell_angle_gamma                 90.0000
loop_
_atom_site_label
_atom_site_type_symbol
_atom_site_fract_x
_atom_site_fract_y
_atom_site_fract_z
_atom_site_U_iso_or_equiv
_atom_site_adp_type
_atom_site_occupancy
C1     C     0.53894   0.74715   0.29698   0.00000  Uiso   1.00
C2     C     0.51711   0.79551   0.22278   0.00000  Uiso   1.00
C3     C     0.50741   0.83836   0.32175   0.00000  Uiso   1.00
C4     C     0.48741   0.87866   0.22904   0.00000  Uiso   1.00
C5     C     0.45500   0.95414   0.14199   0.00000  Uiso   1.00
C6     C     0.50166   0.70623   0.24935   0.00000  Uiso   1.00
C7     C     0.47897   0.67401   0.37068   0.00000  Uiso   1.00
C8     C     0.44596   0.63915   0.30033   0.00000  Uiso   1.00
C9     C     0.38960   0.57599   0.25453   0.00000  Uiso   1.00
C10    C     0.58551   0.73653   0.18536   0.00000  Uiso   1.00
C11    C     0.63333   0.72977   0.25287   0.00000  Uiso   1.00
C12    C     0.67092   0.72042   0.12864   0.00000  Uiso   1.00
C13    C     0.74475   0.70430   0.98348   0.00000  Uiso   1.00
C14    C     0.52066   0.74253   0.95633   0.00000  Uiso   1.00
C15    C     0.50718   0.79300   0.03775   0.00000  Uiso   1.00
C16    C     0.48719   0.83325   0.94486   0.00000  Uiso   1.00
C17    C     0.47746   0.87615   0.04368   0.00000  Uiso   1.00
C18    C     0.49173   0.70372   0.06433   0.00000  Uiso   1.00
C19    C     0.45875   0.66890   0.99379   0.00000  Uiso   1.00
C20    C     0.43602   0.63664   0.11497   0.00000  Uiso   1.00
C21    C     0.57559   0.73402   0.00033   0.00000  Uiso   1.00
C22    C     0.61311   0.72467   0.87598   0.00000  Uiso   1.00
C23    C     0.66097   0.71790   0.94328   0.00000  Uiso   1.00
H24    H     0.54666   0.74910   0.44103   0.00000  Uiso   1.00
H25    H     0.51509   0.84028   0.46494   0.00000  Uiso   1.00
H26    H     0.48666   0.67596   0.51385   0.00000  Uiso   1.00
H27    H     0.64099   0.73172   0.39606   0.00000  Uiso   1.00
H28    H     0.47570   0.94027   0.40987   0.00000  Uiso   1.00
H29    H     0.41576   0.59377   0.51299   0.00000  Uiso   1.00
H30    H     0.74120   0.71134   0.26461   0.00000  Uiso   1.00
H31    H     0.51293   0.74058   0.81227   0.00000  Uiso   1.00
H32    H     0.47951   0.83130   0.80167   0.00000  Uiso   1.00
H33    H     0.45108   0.66697   0.85059   0.00000  Uiso   1.00
H34    H     0.60541   0.72273   0.73280   0.00000  Uiso   1.00
H35    H     0.44682   0.93298   0.87154   0.00000  Uiso   1.00
H36    H     0.38689   0.58647   0.97467   0.00000  Uiso   1.00
H37    H     0.71232   0.70405   0.72628   0.00000  Uiso   1.00
O38    O     0.43987   0.99645   0.14509   0.00000  Uiso   1.00
O39    O     0.36124   0.54185   0.28039   0.00000  Uiso   1.00
O40    O     0.78821   0.69611   0.95452   0.00000  Uiso   1.00
N41    N     0.47350   0.92611   0.28462   0.00000  Uiso   1.00
N42    N     0.41745   0.60215   0.38104   0.00000  Uiso   1.00
N43    N     0.72171   0.71206   0.14883   0.00000  Uiso   1.00
N44    N     0.45796   0.92218   0.99495   0.00000  Uiso   1.00
N45    N     0.40192   0.59823   0.09137   0.00000  Uiso   1.00
N46    N     0.70617   0.70814   0.85916   0.00000  Uiso   1.00
C47    C     0.46106   0.25285   0.29698   0.00000  Uiso   1.00
C48    C     0.48289   0.20449   0.22278   0.00000  Uiso   1.00
C49    C     0.49259   0.16164   0.32175   0.00000  Uiso   1.00
C50    C     0.51259   0.12134   0.22904   0.00000  Uiso   1.00
C51    C     0.54500   0.04586   0.14199   0.00000  Uiso   1.00
C52    C     0.49834   0.29377   0.24935   0.00000  Uiso   1.00
C53    C     0.52103   0.32599   0.37068   0.00000  Uiso   1.00
C54    C     0.55404   0.36085   0.30033   0.00000  Uiso   1.00
C55    C     0.61040   0.42401   0.25453   0.00000  Uiso   1.00
C56    C     0.41449   0.26347   0.18536   0.00000  Uiso   1.00
C57    C     0.36667   0.27023   0.25287   0.00000  Uiso   1.00
C58    C     0.32908   0.27958   0.12864   0.00000  Uiso   1.00
C59    C     0.25525   0.29570   0.98348   0.00000  Uiso   1.00
C60    C     0.47934   0.25747   0.95633   0.00000  Uiso   1.00
C61    C     0.49282   0.20700   0.03775   0.00000  Uiso   1.00
C62    C     0.51281   0.16675   0.94486   0.00000  Uiso   1.00
C63    C     0.52254   0.12385   0.04368   0.00000  Uiso   1.00
C64    C     0.50827   0.29628   0.06433   0.00000  Uiso   1.00
C65    C     0.54125   0.33110   0.99379   0.00000  Uiso   1.00
C66    C     0.56398   0.36336   0.11497   0.00000  Uiso   1.00
C67    C     0.42441   0.26598   0.00033   0.00000  Uiso   1.00
C68    C     0.38689   0.27533   0.87598   0.00000  Uiso   1.00
C69    C     0.33903   0.28210   0.94328   0.00000  Uiso   1.00
H70    H     0.45334   0.25090   0.44103   0.00000  Uiso   1.00
H71    H     0.48491   0.15972   0.46494   0.00000  Uiso   1.00
H72    H     0.51334   0.32404   0.51385   0.00000  Uiso   1.00
H73    H     0.35901   0.26828   0.39606   0.00000  Uiso   1.00
H74    H     0.52430   0.05973   0.40987   0.00000  Uiso   1.00
H75    H     0.58424   0.40623   0.51299   0.00000  Uiso   1.00
H76    H     0.25880   0.28866   0.26461   0.00000  Uiso   1.00
H77    H     0.48707   0.25942   0.81227   0.00000  Uiso   1.00
H78    H     0.52049   0.16870   0.80167   0.00000  Uiso   1.00
H79    H     0.54892   0.33303   0.85059   0.00000  Uiso   1.00
H80    H     0.39459   0.27727   0.73280   0.00000  Uiso   1.00
H81    H     0.55318   0.06702   0.87154   0.00000  Uiso   1.00
H82    H     0.61311   0.41353   0.97467   0.00000  Uiso   1.00
H83    H     0.28768   0.29595   0.72628   0.00000  Uiso   1.00
O84    O     0.56013   0.00355   0.14509   0.00000  Uiso   1.00
O85    O     0.63876   0.45815   0.28039   0.00000  Uiso   1.00
O86    O     0.21179   0.30389   0.95452   0.00000  Uiso   1.00
N87    N     0.52650   0.07389   0.28462   0.00000  Uiso   1.00
N88    N     0.58255   0.39785   0.38104   0.00000  Uiso   1.00
N89    N     0.27829   0.28794   0.14883   0.00000  Uiso   1.00
N90    N     0.54204   0.07782   0.99495   0.00000  Uiso   1.00
N91    N     0.59808   0.40177   0.09137   0.00000  Uiso   1.00
N92    N     0.29383   0.29186   0.85916   0.00000  Uiso   1.00
C93    C     0.75285   0.03894   0.79698   0.00000  Uiso   1.00
C94    C     0.70449   0.01711   0.72278   0.00000  Uiso   1.00
C95    C     0.66164   0.00741   0.82175   0.00000  Uiso   1.00
C96    C     0.62134   0.98741   0.72904   0.00000  Uiso   1.00
C97    C     0.54586   0.95500   0.64199   0.00000  Uiso   1.00
C98    C     0.79377   0.00166   0.74935   0.00000  Uiso   1.00
C99    C     0.82599   0.97897   0.87068   0.00000  Uiso   1.00
C100   C     0.86085   0.94596   0.80033   0.00000  Uiso   1.00
C101   C     0.92401   0.88960   0.75453   0.00000  Uiso   1.00
C102   C     0.76347   0.08551   0.68536   0.00000  Uiso   1.00
C103   C     0.77023   0.13333   0.75287   0.00000  Uiso   1.00
C104   C     0.77958   0.17092   0.62864   0.00000  Uiso   1.00
C105   C     0.79570   0.24475   0.48348   0.00000  Uiso   1.00
C106   C     0.75747   0.02066   0.45633   0.00000  Uiso   1.00
C107   C     0.70700   0.00718   0.53775   0.00000  Uiso   1.00
C108   C     0.66675   0.98719   0.44486   0.00000  Uiso   1.00
C109   C     0.62385   0.97746   0.54368   0.00000  Uiso   1.00
C110   C     0.79628   0.99173   0.56433   0.00000  Uiso   1.00
C111   C     0.83110   0.95875   0.49379   0.00000  Uiso   1.00
C112   C     0.86336   0.93602   0.61497   0.00000  Uiso   1.00
C113   C     0.76598   0.07559   0.50033   0.00000  Uiso   1.00
C114   C     0.77533   0.11311   0.37598   0.00000  Uiso   1.00
C115   C     0.78210   0.16097   0.44328   0.00000  Uiso   1.00
H116   H     0.75090   0.04666   0.94103   0.00000  Uiso   1.00
H117   H     0.65972   0.01509   0.96494   0.00000  Uiso   1.00
H118   H     0.82404   0.98666   0.01385   0.00000  Uiso   1.00
H119   H     0.76828   0.14099   0.89606   0.00000  Uiso   1.00
H120   H     0.55973   0.97570   0.90987   0.00000  Uiso   1.00
H121   H     0.90623   0.91576   0.01299   0.00000  Uiso   1.00
H122   H     0.78866   0.24120   0.76461   0.00000  Uiso   1.00
H123   H     0.75942   0.01293   0.31227   0.00000  Uiso   1.00
H124   H     0.66870   0.97951   0.30167   0.00000  Uiso   1.00
H125   H     0.83303   0.95108   0.35059   0.00000  Uiso   1.00
H126   H     0.77727   0.10541   0.23280   0.00000  Uiso   1.00
H127   H     0.56702   0.94682   0.37154   0.00000  Uiso   1.00
H128   H     0.91353   0.88689   0.47467   0.00000  Uiso   1.00
H129   H     0.79595   0.21232   0.22628   0.00000  Uiso   1.00
O130   O     0.50355   0.93987   0.64509   0.00000  Uiso   1.00
O131   O     0.95815   0.86124   0.78039   0.00000  Uiso   1.00
O132   O     0.80389   0.28821   0.45452   0.00000  Uiso   1.00
N133   N     0.57389   0.97350   0.78462   0.00000  Uiso   1.00
N134   N     0.89785   0.91745   0.88104   0.00000  Uiso   1.00
N135   N     0.78794   0.22171   0.64883   0.00000  Uiso   1.00
N136   N     0.57782   0.95796   0.49495   0.00000  Uiso   1.00
N137   N     0.90177   0.90192   0.59137   0.00000  Uiso   1.00
N138   N     0.79186   0.20617   0.35916   0.00000  Uiso   1.00
C139   C     0.24715   0.96106   0.79698   0.00000  Uiso   1.00
C140   C     0.29551   0.98289   0.72278   0.00000  Uiso   1.00
C141   C     0.33836   0.99259   0.82175   0.00000  Uiso   1.00
C142   C     0.37866   0.01259   0.72904   0.00000  Uiso   1.00
C143   C     0.45414   0.04500   0.64199   0.00000  Uiso   1.00
C144   C     0.20623   0.99834   0.74935   0.00000  Uiso   1.00
C145   C     0.17401   0.02103   0.87068   0.00000  Uiso   1.00
C146   C     0.13915   0.05404   0.80033   0.00000  Uiso   1.00
C147   C     0.07599   0.11040   0.75453   0.00000  Uiso   1.00
C148   C     0.23653   0.91449   0.68536   0.00000  Uiso   1.00
C149   C     0.22977   0.86667   0.75287   0.00000  Uiso   1.00
C150   C     0.22042   0.82908   0.62864   0.00000  Uiso   1.00
C151   C     0.20430   0.75525   0.48348   0.00000  Uiso   1.00
C152   C     0.24253   0.97934   0.45633   0.00000  Uiso   1.00
C153   C     0.29300   0.99282   0.53775   0.00000  Uiso   1.00
C154   C     0.33325   0.01281   0.44486   0.00000  Uiso   1.00
C155   C     0.37615   0.02254   0.54368   0.00000  Uiso   1.00
C156   C     0.20372   0.00827   0.56433   0.00000  Uiso   1.00
C157   C     0.16890   0.04125   0.49379   0.00000  Uiso   1.00
C158   C     0.13664   0.06398   0.61497   0.00000  Uiso   1.00
C159   C     0.23402   0.92441   0.50033   0.00000  Uiso   1.00
C160   C     0.22467   0.88689   0.37598   0.00000  Uiso   1.00
C161   C     0.21790   0.83903   0.44328   0.00000  Uiso   1.00
H162   H     0.24910   0.95334   0.94103   0.00000  Uiso   1.00
H163   H     0.34028   0.98491   0.96494   0.00000  Uiso   1.00
H164   H     0.17596   0.01334   0.01385   0.00000  Uiso   1.00
H165   H     0.23172   0.85901   0.89606   0.00000  Uiso   1.00
H166   H     0.44027   0.02430   0.90987   0.00000  Uiso   1.00
H167   H     0.09377   0.08424   0.01299   0.00000  Uiso   1.00
H168   H     0.21134   0.75880   0.76461   0.00000  Uiso   1.00
H169   H     0.24058   0.98707   0.31227   0.00000  Uiso   1.00
H170   H     0.33130   0.02049   0.30167   0.00000  Uiso   1.00
H171   H     0.16697   0.04892   0.35059   0.00000  Uiso   1.00
H172   H     0.22273   0.89459   0.23280   0.00000  Uiso   1.00
H173   H     0.43298   0.05318   0.37154   0.00000  Uiso   1.00
H174   H     0.08647   0.11311   0.47467   0.00000  Uiso   1.00
H175   H     0.20405   0.78768   0.22628   0.00000  Uiso   1.00
O176   O     0.49645   0.06013   0.64509   0.00000  Uiso   1.00
O177   O     0.04185   0.13876   0.78039   0.00000  Uiso   1.00
O178   O     0.19611   0.71179   0.45452   0.00000  Uiso   1.00
N179   N     0.42611   0.02650   0.78462   0.00000  Uiso   1.00
N180   N     0.10215   0.08255   0.88104   0.00000  Uiso   1.00
N181   N     0.21206   0.77829   0.64883   0.00000  Uiso   1.00
N182   N     0.42218   0.04204   0.49495   0.00000  Uiso   1.00
N183   N     0.09823   0.09808   0.59137   0.00000  Uiso   1.00
N184   N     0.20814   0.79383   0.35916   0.00000  Uiso   1.00
C185   C     0.96106   0.75285   0.20302   0.00000  Uiso   1.00
C186   C     0.98289   0.70449   0.27722   0.00000  Uiso   1.00
C187   C     0.99259   0.66164   0.17825   0.00000  Uiso   1.00
C188   C     0.01259   0.62134   0.27096   0.00000  Uiso   1.00
C189   C     0.04500   0.54586   0.35801   0.00000  Uiso   1.00
C190   C     0.99834   0.79377   0.25065   0.00000  Uiso   1.00
C191   C     0.02103   0.82599   0.12932   0.00000  Uiso   1.00
C192   C     0.05404   0.86085   0.19967   0.00000  Uiso   1.00
C193   C     0.11040   0.92401   0.24547   0.00000  Uiso   1.00
C194   C     0.91449   0.76347   0.31464   0.00000  Uiso   1.00
C195   C     0.86667   0.77023   0.24713   0.00000  Uiso   1.00
C196   C     0.82908   0.77958   0.37136   0.00000  Uiso   1.00
C197   C     0.75525   0.79570   0.51652   0.00000  Uiso   1.00
C198   C     0.97934   0.75747   0.54367   0.00000  Uiso   1.00
C199   C     0.99282   0.70700   0.46225   0.00000  Uiso   1.00
C200   C     0.01281   0.66675   0.55514   0.00000  Uiso   1.00
C201   C     0.02254   0.62385   0.45632   0.00000  Uiso   1.00
C202   C     0.00827   0.79628   0.43567   0.00000  Uiso   1.00
C203   C     0.04125   0.83110   0.50621   0.00000  Uiso   1.00
C204   C     0.06398   0.86336   0.38503   0.00000  Uiso   1.00
C205   C     0.92441   0.76598   0.49967   0.00000  Uiso   1.00
C206   C     0.88689   0.77533   0.62402   0.00000  Uiso   1.00
C207   C     0.83903   0.78210   0.55672   0.00000  Uiso   1.00
H208   H     0.95334   0.75090   0.05897   0.00000  Uiso   1.00
H209   H     0.98491   0.65972   0.03506   0.00000  Uiso   1.00
H210   H     0.01334   0.82404   0.98615   0.00000  Uiso   1.00
H211   H     0.85901   0.76828   0.10394   0.00000  Uiso   1.00
H212   H     0.02430   0.55973   0.09013   0.00000  Uiso   1.00
H213   H     0.08424   0.90623   0.98701   0.00000  Uiso   1.00
H214   H     0.75880   0.78866   0.23539   0.00000  Uiso   1.00
H215   H     0.98707   0.75942   0.68773   0.00000  Uiso   1.00
H216   H     0.02049   0.66870   0.69833   0.00000  Uiso   1.00
H217   H     0.04892   0.83303   0.64941   0.00000  Uiso   1.00
H218   H     0.89459   0.77727   0.76720   0.00000  Uiso   1.00
H219   H     0.05318   0.56702   0.62846   0.00000  Uiso   1.00
H220   H     0.11311   0.91353   0.52533   0.00000  Uiso   1.00
H221   H     0.78768   0.79595   0.77372   0.00000  Uiso   1.00
O222   O     0.06013   0.50355   0.35491   0.00000  Uiso   1.00
O223   O     0.13876   0.95815   0.21961   0.00000  Uiso   1.00
O224   O     0.71179   0.80389   0.54548   0.00000  Uiso   1.00
N225   N     0.02650   0.57389   0.21538   0.00000  Uiso   1.00
N226   N     0.08255   0.89785   0.11896   0.00000  Uiso   1.00
N227   N     0.77829   0.78794   0.35117   0.00000  Uiso   1.00
N228   N     0.04204   0.57782   0.50505   0.00000  Uiso   1.00
N229   N     0.09808   0.90177   0.40863   0.00000  Uiso   1.00
N230   N     0.79383   0.79186   0.64084   0.00000  Uiso   1.00
C231   C     0.03894   0.24715   0.20302   0.00000  Uiso   1.00
C232   C     0.01711   0.29551   0.27722   0.00000  Uiso   1.00
C233   C     0.00741   0.33836   0.17825   0.00000  Uiso   1.00
C234   C     0.98741   0.37866   0.27096   0.00000  Uiso   1.00
C235   C     0.95500   0.45414   0.35801   0.00000  Uiso   1.00
C236   C     0.00166   0.20623   0.25065   0.00000  Uiso   1.00
C237   C     0.97897   0.17401   0.12932   0.00000  Uiso   1.00
C238   C     0.94596   0.13915   0.19967   0.00000  Uiso   1.00
C239   C     0.88960   0.07599   0.24547   0.00000  Uiso   1.00
C240   C     0.08551   0.23653   0.31464   0.00000  Uiso   1.00
C241   C     0.13333   0.22977   0.24713   0.00000  Uiso   1.00
C242   C     0.17092   0.22042   0.37136   0.00000  Uiso   1.00
C243   C     0.24475   0.20430   0.51652   0.00000  Uiso   1.00
C244   C     0.02066   0.24253   0.54367   0.00000  Uiso   1.00
C245   C     0.00718   0.29300   0.46225   0.00000  Uiso   1.00
C246   C     0.98719   0.33325   0.55514   0.00000  Uiso   1.00
C247   C     0.97746   0.37615   0.45632   0.00000  Uiso   1.00
C248   C     0.99173   0.20372   0.43567   0.00000  Uiso   1.00
C249   C     0.95875   0.16890   0.50621   0.00000  Uiso   1.00
C250   C     0.93602   0.13664   0.38503   0.00000  Uiso   1.00
C251   C     0.07559   0.23402   0.49967   0.00000  Uiso   1.00
C252   C     0.11311   0.22467   0.62402   0.00000  Uiso   1.00
C253   C     0.16097   0.21790   0.55672   0.00000  Uiso   1.00
H254   H     0.04666   0.24910   0.05897   0.00000  Uiso   1.00
H255   H     0.01509   0.34028   0.03506   0.00000  Uiso   1.00
H256   H     0.98666   0.17596   0.98615   0.00000  Uiso   1.00
H257   H     0.14099   0.23172   0.10394   0.00000  Uiso   1.00
H258   H     0.97570   0.44027   0.09013   0.00000  Uiso   1.00
H259   H     0.91576   0.09377   0.98701   0.00000  Uiso   1.00
H260   H     0.24120   0.21134   0.23539   0.00000  Uiso   1.00
H261   H     0.01293   0.24058   0.68773   0.00000  Uiso   1.00
H262   H     0.97951   0.33130   0.69833   0.00000  Uiso   1.00
H263   H     0.95108   0.16697   0.64941   0.00000  Uiso   1.00
H264   H     0.10541   0.22273   0.76720   0.00000  Uiso   1.00
H265   H     0.94682   0.43298   0.62846   0.00000  Uiso   1.00
H266   H     0.88689   0.08647   0.52533   0.00000  Uiso   1.00
H267   H     0.21232   0.20405   0.77372   0.00000  Uiso   1.00
O268   O     0.93987   0.49645   0.35491   0.00000  Uiso   1.00
O269   O     0.86124   0.04185   0.21961   0.00000  Uiso   1.00
O270   O     0.28821   0.19611   0.54548   0.00000  Uiso   1.00
N271   N     0.97350   0.42611   0.21538   0.00000  Uiso   1.00
N272   N     0.91745   0.10215   0.11896   0.00000  Uiso   1.00
N273   N     0.22171   0.21206   0.35117   0.00000  Uiso   1.00
N274   N     0.95796   0.42218   0.50505   0.00000  Uiso   1.00
N275   N     0.90192   0.09823   0.40863   0.00000  Uiso   1.00
N276   N     0.20617   0.20814   0.64084   0.00000  Uiso   1.00
C277   C     0.74715   0.46106   0.70302   0.00000  Uiso   1.00
C278   C     0.79551   0.48289   0.77722   0.00000  Uiso   1.00
C279   C     0.83836   0.49259   0.67825   0.00000  Uiso   1.00
C280   C     0.87866   0.51259   0.77096   0.00000  Uiso   1.00
C281   C     0.95414   0.54500   0.85801   0.00000  Uiso   1.00
C282   C     0.70623   0.49834   0.75065   0.00000  Uiso   1.00
C283   C     0.67401   0.52103   0.62932   0.00000  Uiso   1.00
C284   C     0.63915   0.55404   0.69967   0.00000  Uiso   1.00
C285   C     0.57599   0.61040   0.74547   0.00000  Uiso   1.00
C286   C     0.73653   0.41449   0.81464   0.00000  Uiso   1.00
C287   C     0.72977   0.36667   0.74713   0.00000  Uiso   1.00
C288   C     0.72042   0.32908   0.87136   0.00000  Uiso   1.00
C289   C     0.70430   0.25525   0.01652   0.00000  Uiso   1.00
C290   C     0.74253   0.47934   0.04367   0.00000  Uiso   1.00
C291   C     0.79300   0.49282   0.96225   0.00000  Uiso   1.00
C292   C     0.83325   0.51281   0.05514   0.00000  Uiso   1.00
C293   C     0.87615   0.52254   0.95632   0.00000  Uiso   1.00
C294   C     0.70372   0.50827   0.93567   0.00000  Uiso   1.00
C295   C     0.66890   0.54125   0.00621   0.00000  Uiso   1.00
C296   C     0.63664   0.56398   0.88503   0.00000  Uiso   1.00
C297   C     0.73402   0.42441   0.99967   0.00000  Uiso   1.00
C298   C     0.72467   0.38689   0.12402   0.00000  Uiso   1.00
C299   C     0.71790   0.33903   0.05672   0.00000  Uiso   1.00
H300   H     0.74910   0.45334   0.55897   0.00000  Uiso   1.00
H301   H     0.84028   0.48491   0.53506   0.00000  Uiso   1.00
H302   H     0.67596   0.51334   0.48615   0.00000  Uiso   1.00
H303   H     0.73172   0.35901   0.60394   0.00000  Uiso   1.00
H304   H     0.94027   0.52430   0.59013   0.00000  Uiso   1.00
H305   H     0.59377   0.58424   0.48701   0.00000  Uiso   1.00
H306   H     0.71134   0.25880   0.73539   0.00000  Uiso   1.00
H307   H     0.74058   0.48707   0.18773   0.00000  Uiso   1.00
H308   H     0.83130   0.52049   0.19833   0.00000  Uiso   1.00
H309   H     0.66697   0.54892   0.14941   0.00000  Uiso   1.00
H310   H     0.72273   0.39459   0.26720   0.00000  Uiso   1.00
H311   H     0.93298   0.55318   0.12846   0.00000  Uiso   1.00
H312   H     0.58647   0.61311   0.02533   0.00000  Uiso   1.00
H313   H     0.70405   0.28768   0.27372   0.00000  Uiso   1.00
O314   O     0.99645   0.56013   0.85491   0.00000  Uiso   1.00
O315   O     0.54185   0.63876   0.71961   0.00000  Uiso   1.00
O316   O     0.69611   0.21179   0.04548   0.00000  Uiso   1.00
N317   N     0.92611   0.52650   0.71538   0.00000  Uiso   1.00
N318   N     0.60215   0.58255   0.61896   0.00000  Uiso   1.00
N319   N     0.71206   0.27829   0.85117   0.00000  Uiso   1.00
N320   N     0.92218   0.54204   0.00505   0.00000  Uiso   1.00
N321   N     0.59823   0.59808   0.90863   0.00000  Uiso   1.00
N322   N     0.70814   0.29383   0.14084   0.00000  Uiso   1.00
C323   C     0.25285   0.53894   0.70302   0.00000  Uiso   1.00
C324   C     0.20449   0.51711   0.77722   0.00000  Uiso   1.00
C325   C     0.16164   0.50741   0.67825   0.00000  Uiso   1.00
C326   C     0.12134   0.48741   0.77096   0.00000  Uiso   1.00
C327   C     0.04586   0.45500   0.85801   0.00000  Uiso   1.00
C328   C     0.29377   0.50166   0.75065   0.00000  Uiso   1.00
C329   C     0.32599   0.47897   0.62932   0.00000  Uiso   1.00
C330   C     0.36085   0.44596   0.69967   0.00000  Uiso   1.00
C331   C     0.42401   0.38960   0.74547   0.00000  Uiso   1.00
C332   C     0.26347   0.58551   0.81464   0.00000  Uiso   1.00
C333   C     0.27023   0.63333   0.74713   0.00000  Uiso   1.00
C334   C     0.27958   0.67092   0.87136   0.00000  Uiso   1.00
C335   C     0.29570   0.74475   0.01652   0.00000  Uiso   1.00
C336   C     0.25747   0.52066   0.04367   0.00000  Uiso   1.00
C337   C     0.20700   0.50718   0.96225   0.00000  Uiso   1.00
C338   C     0.16675   0.48719   0.05514   0.00000  Uiso   1.00
C339   C     0.12385   0.47746   0.95632   0.00000  Uiso   1.00
C340   C     0.29628   0.49173   0.93567   0.00000  Uiso   1.00
C341   C     0.33110   0.45875   0.00621   0.00000  Uiso   1.00
C342   C     0.36336   0.43602   0.88503   0.00000  Uiso   1.00
C343   C     0.26598   0.57559   0.99967   0.00000  Uiso   1.00
C344   C     0.27533   0.61311   0.12402   0.00000  Uiso   1.00
C345   C     0.28210   0.66097   0.05672   0.00000  Uiso   1.00
H346   H     0.25090   0.54666   0.55897   0.00000  Uiso   1.00
H347   H     0.15972   0.51509   0.53506   0.00000  Uiso   1.00
H348   H     0.32404   0.48666   0.48615   0.00000  Uiso   1.00
H349   H     0.26828   0.64099   0.60394   0.00000  Uiso   1.00
H350   H     0.05973   0.47570   0.59013   0.00000  Uiso   1.00
H351   H     0.40623   0.41576   0.48701   0.00000  Uiso   1.00
H352   H     0.28866   0.74120   0.73539   0.00000  Uiso   1.00
H353   H     0.25942   0.51293   0.18773   0.00000  Uiso   1.00
H354   H     0.16870   0.47951   0.19833   0.00000  Uiso   1.00
H355   H     0.33303   0.45108   0.14941   0.00000  Uiso   1.00
H356   H     0.27727   0.60541   0.26720   0.00000  Uiso   1.00
H357   H     0.06702   0.44682   0.12846   0.00000  Uiso   1.00
H358   H     0.41353   0.38689   0.02533   0.00000  Uiso   1.00
H359   H     0.29595   0.71232   0.27372   0.00000  Uiso   1.00
O360   O     0.00355   0.43987   0.85491   0.00000  Uiso   1.00
O361   O     0.45815   0.36124   0.71961   0.00000  Uiso   1.00
O362   O     0.30389   0.78821   0.04548   0.00000  Uiso   1.00
N363   N     0.07389   0.47350   0.71538   0.00000  Uiso   1.00
N364   N     0.39785   0.41745   0.61896   0.00000  Uiso   1.00
N365   N     0.28794   0.72171   0.85117   0.00000  Uiso   1.00
N366   N     0.07782   0.45796   0.00505   0.00000  Uiso   1.00
N367   N     0.40177   0.40192   0.90863   0.00000  Uiso   1.00
N368   N     0.29186   0.70617   0.14084   0.00000  Uiso   1.00
