data_job_07042
_audit_creation_date              2018-12-19
_audit_creation_method            'Materials Studio'
_symmetry_space_group_name_H-M    'P1'
_symmetry_Int_Tables_number       1
_symmetry_cell_setting            triclinic
loop_
_symmetry_equiv_pos_as_xyz
  x,y,z
_cell_length_a                    19.2185
_cell_length_b                    25.4348
_cell_length_c                    20.6867
_cell_angle_alpha                 87.8067
_cell_angle_beta                  83.2810
_cell_angle_gamma                 83.8822
loop_
_atom_site_label
_atom_site_type_symbol
_atom_site_fract_x
_atom_site_fract_y
_atom_site_fract_z
_atom_site_U_iso_or_equiv
_atom_site_adp_type
_atom_site_occupancy
C1     C     0.45312   0.60567   0.78966   0.00000  Uiso   1.00
C2     C     0.40354   0.65299   0.81536   0.00000  Uiso   1.00
C3     C     0.35112   0.68037   0.78283   0.00000  Uiso   1.00
C4     C     0.31139   0.72254   0.81461   0.00000  Uiso   1.00
C5     C     0.23255   0.79387   0.84506   0.00000  Uiso   1.00
C6     C     0.52755   0.62078   0.79144   0.00000  Uiso   1.00
C7     C     0.57940   0.62106   0.73879   0.00000  Uiso   1.00
C8     C     0.64407   0.63610   0.75044   0.00000  Uiso   1.00
C9     C     0.75778   0.65738   0.74376   0.00000  Uiso   1.00
C10    C     0.44382   0.56121   0.84050   0.00000  Uiso   1.00
C11    C     0.42528   0.51140   0.82911   0.00000  Uiso   1.00
C12    C     0.41947   0.47629   0.88207   0.00000  Uiso   1.00
C13    C     0.40317   0.40507   0.95156   0.00000  Uiso   1.00
C14    C     0.47578   0.63188   0.90396   0.00000  Uiso   1.00
C15    C     0.41585   0.66723   0.87744   0.00000  Uiso   1.00
C16    C     0.37619   0.70936   0.90928   0.00000  Uiso   1.00
C17    C     0.32372   0.73680   0.87681   0.00000  Uiso   1.00
C18    C     0.53986   0.63501   0.85352   0.00000  Uiso   1.00
C19    C     0.60447   0.65005   0.86525   0.00000  Uiso   1.00
C20    C     0.65640   0.65036   0.81263   0.00000  Uiso   1.00
C21    C     0.45612   0.57544   0.90258   0.00000  Uiso   1.00
C22    C     0.45035   0.54040   0.95557   0.00000  Uiso   1.00
C23    C     0.43180   0.49054   0.94426   0.00000  Uiso   1.00
H24    H     0.44355   0.59459   0.74133   0.00000  Uiso   1.00
H25    H     0.34161   0.66935   0.73478   0.00000  Uiso   1.00
H26    H     0.56986   0.61004   0.69076   0.00000  Uiso   1.00
H27    H     0.41576   0.50040   0.78106   0.00000  Uiso   1.00
H28    H     0.23405   0.75852   0.75490   0.00000  Uiso   1.00
H29    H     0.71533   0.63345   0.66207   0.00000  Uiso   1.00
H30    H     0.39038   0.40225   0.85249   0.00000  Uiso   1.00
H31    H     0.48537   0.64296   0.95229   0.00000  Uiso   1.00
H32    H     0.38573   0.72037   0.95733   0.00000  Uiso   1.00
H33    H     0.61398   0.66106   0.91329   0.00000  Uiso   1.00
H34    H     0.45988   0.55142   0.00360   0.00000  Uiso   1.00
H35    H     0.26986   0.79993   0.93552   0.00000  Uiso   1.00
H36    H     0.75114   0.67486   0.84269   0.00000  Uiso   1.00
H37    H     0.42619   0.44366   0.03311   0.00000  Uiso   1.00
O38    O     0.18567   0.82929   0.84471   0.00000  Uiso   1.00
O39    O     0.81709   0.66519   0.72292   0.00000  Uiso   1.00
O40    O     0.39077   0.36186   0.97275   0.00000  Uiso   1.00
N41    N     0.25614   0.75763   0.79672   0.00000  Uiso   1.00
N42    N     0.70611   0.64071   0.70993   0.00000  Uiso   1.00
N43    N     0.40233   0.42455   0.88796   0.00000  Uiso   1.00
N44    N     0.27541   0.77992   0.89391   0.00000  Uiso   1.00
N45    N     0.72537   0.66299   0.80712   0.00000  Uiso   1.00
N46    N     0.42159   0.44683   0.98515   0.00000  Uiso   1.00
C47    C     0.73755   0.49830   0.56216   0.00000  Uiso   1.00
C48    C     0.72658   0.49556   0.63637   0.00000  Uiso   1.00
C49    C     0.66198   0.49796   0.67452   0.00000  Uiso   1.00
C50    C     0.66312   0.49479   0.74154   0.00000  Uiso   1.00
C51    C     0.63643   0.49138   0.85255   0.00000  Uiso   1.00
C52    C     0.78157   0.54423   0.54387   0.00000  Uiso   1.00
C53    C     0.76322   0.58754   0.50423   0.00000  Uiso   1.00
C54    C     0.81066   0.62533   0.49338   0.00000  Uiso   1.00
C55    C     0.86937   0.69745   0.46073   0.00000  Uiso   1.00
C56    C     0.78460   0.44832   0.54132   0.00000  Uiso   1.00
C57    C     0.76881   0.41101   0.49952   0.00000  Uiso   1.00
C58    C     0.81882   0.36805   0.48652   0.00000  Uiso   1.00
C59    C     0.88223   0.29128   0.44991   0.00000  Uiso   1.00
C60    C     0.85444   0.48838   0.61335   0.00000  Uiso   1.00
C61    C     0.79007   0.49018   0.66417   0.00000  Uiso   1.00
C62    C     0.79131   0.48699   0.73116   0.00000  Uiso   1.00
C63    C     0.72673   0.48939   0.76940   0.00000  Uiso   1.00
C64    C     0.84506   0.53884   0.57167   0.00000  Uiso   1.00
C65    C     0.89255   0.57657   0.56087   0.00000  Uiso   1.00
C66    C     0.87427   0.61993   0.52123   0.00000  Uiso   1.00
C67    C     0.84810   0.44294   0.56912   0.00000  Uiso   1.00
C68    C     0.89814   0.40003   0.55617   0.00000  Uiso   1.00
C69    C     0.88243   0.36266   0.51437   0.00000  Uiso   1.00
H70    H     0.68812   0.50250   0.54051   0.00000  Uiso   1.00
H71    H     0.61286   0.50214   0.65298   0.00000  Uiso   1.00
H72    H     0.71408   0.59170   0.48271   0.00000  Uiso   1.00
H73    H     0.71967   0.41519   0.47802   0.00000  Uiso   1.00
H74    H     0.55741   0.49938   0.78994   0.00000  Uiso   1.00
H75    H     0.77086   0.68822   0.43091   0.00000  Uiso   1.00
H76    H     0.78265   0.31601   0.42100   0.00000  Uiso   1.00
H77    H     0.90388   0.48419   0.63500   0.00000  Uiso   1.00
H78    H     0.84045   0.48282   0.75266   0.00000  Uiso   1.00
H79    H     0.94168   0.57239   0.58239   0.00000  Uiso   1.00
H80    H     0.94727   0.39588   0.57770   0.00000  Uiso   1.00
H81    H     0.74214   0.48371   0.87085   0.00000  Uiso   1.00
H82    H     0.95559   0.67254   0.51181   0.00000  Uiso   1.00
H83    H     0.96738   0.30034   0.50190   0.00000  Uiso   1.00
O84    O     0.60416   0.49100   0.90609   0.00000  Uiso   1.00
O85    O     0.88420   0.73873   0.43504   0.00000  Uiso   1.00
O86    O     0.89967   0.25041   0.42205   0.00000  Uiso   1.00
N87    N     0.60959   0.49587   0.79284   0.00000  Uiso   1.00
N88    N     0.80915   0.67242   0.45717   0.00000  Uiso   1.00
N89    N     0.82018   0.32445   0.44789   0.00000  Uiso   1.00
N90    N     0.70899   0.48744   0.83637   0.00000  Uiso   1.00
N91    N     0.90855   0.66399   0.50070   0.00000  Uiso   1.00
N92    N     0.91958   0.31602   0.49142   0.00000  Uiso   1.00
C93    C     0.54406   0.83662   0.34907   0.00000  Uiso   1.00
C94    C     0.62123   0.81461   0.33633   0.00000  Uiso   1.00
C95    C     0.65174   0.78649   0.28224   0.00000  Uiso   1.00
C96    C     0.72315   0.76975   0.27965   0.00000  Uiso   1.00
C97    C     0.83698   0.73386   0.25233   0.00000  Uiso   1.00
C98    C     0.51664   0.81338   0.41502   0.00000  Uiso   1.00
C99    C     0.45920   0.78423   0.42710   0.00000  Uiso   1.00
C100   C     0.44257   0.76646   0.49076   0.00000  Uiso   1.00
C101   C     0.39398   0.72870   0.58562   0.00000  Uiso   1.00
C102   C     0.54403   0.89577   0.35862   0.00000  Uiso   1.00
C103   C     0.50961   0.93591   0.32328   0.00000  Uiso   1.00
C104   C     0.51602   0.98751   0.33946   0.00000  Uiso   1.00
C105   C     0.50996   0.07769   0.34674   0.00000  Uiso   1.00
C106   C     0.61662   0.85691   0.44066   0.00000  Uiso   1.00
C107   C     0.66064   0.82562   0.38608   0.00000  Uiso   1.00
C108   C     0.73202   0.80893   0.38358   0.00000  Uiso   1.00
C109   C     0.76264   0.78078   0.32949   0.00000  Uiso   1.00
C110   C     0.55605   0.82439   0.46478   0.00000  Uiso   1.00
C111   C     0.53948   0.80667   0.52844   0.00000  Uiso   1.00
C112   C     0.48205   0.77750   0.54061   0.00000  Uiso   1.00
C113   C     0.58344   0.90679   0.40837   0.00000  Uiso   1.00
C114   C     0.58990   0.95835   0.42462   0.00000  Uiso   1.00
C115   C     0.55550   0.99855   0.38930   0.00000  Uiso   1.00
H116   H     0.51337   0.82804   0.31034   0.00000  Uiso   1.00
H117   H     0.62122   0.77796   0.24375   0.00000  Uiso   1.00
H118   H     0.42871   0.77571   0.38859   0.00000  Uiso   1.00
H119   H     0.47912   0.92737   0.28478   0.00000  Uiso   1.00
H120   H     0.75817   0.72728   0.19188   0.00000  Uiso   1.00
H121   H     0.35224   0.72255   0.49728   0.00000  Uiso   1.00
H122   H     0.45852   0.04234   0.27839   0.00000  Uiso   1.00
H123   H     0.64730   0.86548   0.47940   0.00000  Uiso   1.00
H124   H     0.76251   0.81746   0.42209   0.00000  Uiso   1.00
H125   H     0.56999   0.81520   0.56693   0.00000  Uiso   1.00
H126   H     0.62040   0.96686   0.46312   0.00000  Uiso   1.00
H127   H     0.87284   0.75933   0.33663   0.00000  Uiso   1.00
H128   H     0.46691   0.75460   0.64203   0.00000  Uiso   1.00
H129   H     0.57319   0.07440   0.42313   0.00000  Uiso   1.00
O130   O     0.88887   0.71102   0.22351   0.00000  Uiso   1.00
O131   O     0.35629   0.70483   0.62419   0.00000  Uiso   1.00
O132   O     0.49574   0.12438   0.33700   0.00000  Uiso   1.00
N133   N     0.76935   0.74143   0.23380   0.00000  Uiso   1.00
N134   N     0.38983   0.73699   0.51934   0.00000  Uiso   1.00
N135   N     0.48919   0.03597   0.31470   0.00000  Uiso   1.00
N136   N     0.83105   0.75867   0.31169   0.00000  Uiso   1.00
N137   N     0.45154   0.75424   0.59723   0.00000  Uiso   1.00
N138   N     0.55089   0.05322   0.39258   0.00000  Uiso   1.00
C139   C     0.77480   0.38283   0.02696   0.00000  Uiso   1.00
C140   C     0.78066   0.37183   0.09921   0.00000  Uiso   1.00
C141   C     0.72935   0.35254   0.14399   0.00000  Uiso   1.00
C142   C     0.74483   0.34515   0.20780   0.00000  Uiso   1.00
C143   C     0.74413   0.32629   0.31720   0.00000  Uiso   1.00
C144   C     0.83766   0.35049   0.99058   0.00000  Uiso   1.00
C145   C     0.83428   0.31327   0.94401   0.00000  Uiso   1.00
C146   C     0.89775   0.28793   0.91637   0.00000  Uiso   1.00
C147   C     0.98555   0.23598   0.85708   0.00000  Uiso   1.00
C148   C     0.78745   0.44068   0.01419   0.00000  Uiso   1.00
C149   C     0.74185   0.47928   0.98747   0.00000  Uiso   1.00
C150   C     0.76306   0.52986   0.97970   0.00000  Uiso   1.00
C151   C     0.77290   0.61794   0.95707   0.00000  Uiso   1.00
C152   C     0.89354   0.40401   0.06067   0.00000  Uiso   1.00
C153   C     0.84516   0.38333   0.11752   0.00000  Uiso   1.00
C154   C     0.86072   0.37598   0.18128   0.00000  Uiso   1.00
C155   C     0.80944   0.35668   0.22615   0.00000  Uiso   1.00
C156   C     0.90216   0.36200   0.00888   0.00000  Uiso   1.00
C157   C     0.96565   0.33671   0.98131   0.00000  Uiso   1.00
C158   C     0.96236   0.29946   0.93471   0.00000  Uiso   1.00
C159   C     0.85195   0.45218   0.03250   0.00000  Uiso   1.00
C160   C     0.87323   0.50272   0.02477   0.00000  Uiso   1.00
C161   C     0.82767   0.54139   0.99804   0.00000  Uiso   1.00
H162   H     0.72459   0.37387   0.01270   0.00000  Uiso   1.00
H163   H     0.67944   0.34363   0.12980   0.00000  Uiso   1.00
H164   H     0.78436   0.30438   0.92985   0.00000  Uiso   1.00
H165   H     0.69195   0.47036   0.97331   0.00000  Uiso   1.00
H166   H     0.65784   0.31517   0.26769   0.00000  Uiso   1.00
H167   H     0.87906   0.23241   0.84607   0.00000  Uiso   1.00
H168   H     0.68420   0.58242   0.93770   0.00000  Uiso   1.00
H169   H     0.94376   0.41297   0.07492   0.00000  Uiso   1.00
H170   H     0.91064   0.38488   0.19544   0.00000  Uiso   1.00
H171   H     0.01555   0.34563   0.99548   0.00000  Uiso   1.00
H172   H     0.92314   0.51161   0.03894   0.00000  Uiso   1.00
H173   H     0.84549   0.34865   0.32096   0.00000  Uiso   1.00
H174   H     0.06671   0.26589   0.89934   0.00000  Uiso   1.00
H175   H     0.87185   0.61589   0.99098   0.00000  Uiso   1.00
O176   O     0.72593   0.31271   0.37248   0.00000  Uiso   1.00
O177   O     0.01617   0.20414   0.81932   0.00000  Uiso   1.00
O178   O     0.76051   0.66334   0.93955   0.00000  Uiso   1.00
N179   N     0.70654   0.32691   0.26369   0.00000  Uiso   1.00
N180   N     0.91337   0.24953   0.86951   0.00000  Uiso   1.00
N181   N     0.73120   0.57675   0.95516   0.00000  Uiso   1.00
N182   N     0.80752   0.34493   0.29236   0.00000  Uiso   1.00
N183   N     0.01435   0.26754   0.89817   0.00000  Uiso   1.00
N184   N     0.83217   0.59477   0.98383   0.00000  Uiso   1.00
C185   C     0.25094   0.11728   0.06993   0.00000  Uiso   1.00
C186   C     0.28313   0.15678   0.02099   0.00000  Uiso   1.00
C187   C     0.24598   0.19369   0.98342   0.00000  Uiso   1.00
C188   C     0.28512   0.22626   0.94156   0.00000  Uiso   1.00
C189   C     0.32389   0.28827   0.86621   0.00000  Uiso   1.00
C190   C     0.27754   0.12696   0.13463   0.00000  Uiso   1.00
C191   C     0.23569   0.13878   0.19261   0.00000  Uiso   1.00
C192   C     0.27011   0.14624   0.24641   0.00000  Uiso   1.00
C193   C     0.30021   0.16189   0.34751   0.00000  Uiso   1.00
C194   C     0.28505   0.06277   0.04901   0.00000  Uiso   1.00
C195   C     0.24952   0.02060   0.03501   0.00000  Uiso   1.00
C196   C     0.29028   0.97401   0.01674   0.00000  Uiso   1.00
C197   C     0.33204   0.89001   0.98489   0.00000  Uiso   1.00
C198   C     0.38649   0.10950   0.06239   0.00000  Uiso   1.00
C199   C     0.35676   0.15256   0.01690   0.00000  Uiso   1.00
C200   C     0.39596   0.18508   0.97508   0.00000  Uiso   1.00
C201   C     0.35888   0.22203   0.93745   0.00000  Uiso   1.00
C202   C     0.35116   0.12273   0.13054   0.00000  Uiso   1.00
C203   C     0.38566   0.13017   0.18427   0.00000  Uiso   1.00
C204   C     0.34387   0.14200   0.24231   0.00000  Uiso   1.00
C205   C     0.35868   0.05854   0.04491   0.00000  Uiso   1.00
C206   C     0.39950   0.01200   0.02666   0.00000  Uiso   1.00
C207   C     0.36404   0.96978   0.01264   0.00000  Uiso   1.00
H208   H     0.19362   0.12057   0.07313   0.00000  Uiso   1.00
H209   H     0.18900   0.19695   0.98661   0.00000  Uiso   1.00
H210   H     0.17871   0.14204   0.19577   0.00000  Uiso   1.00
H211   H     0.19255   0.02389   0.03819   0.00000  Uiso   1.00
H212   H     0.21635   0.27978   0.88890   0.00000  Uiso   1.00
H213   H     0.19465   0.16398   0.32993   0.00000  Uiso   1.00
H214   H     0.22383   0.91484   0.99764   0.00000  Uiso   1.00
H215   H     0.44382   0.10621   0.05920   0.00000  Uiso   1.00
H216   H     0.45293   0.18181   0.97192   0.00000  Uiso   1.00
H217   H     0.44264   0.12690   0.18108   0.00000  Uiso   1.00
H218   H     0.45647   0.00875   0.02350   0.00000  Uiso   1.00
H219   H     0.43057   0.26749   0.87698   0.00000  Uiso   1.00
H220   H     0.40886   0.15170   0.31801   0.00000  Uiso   1.00
H221   H     0.43804   0.90256   0.98572   0.00000  Uiso   1.00
O222   O     0.32494   0.32364   0.82579   0.00000  Uiso   1.00
O223   O     0.29646   0.17171   0.40440   0.00000  Uiso   1.00
O224   O     0.33474   0.84484   0.96845   0.00000  Uiso   1.00
N225   N     0.26552   0.26651   0.89806   0.00000  Uiso   1.00
N226   N     0.24523   0.15825   0.31040   0.00000  Uiso   1.00
N227   N     0.27250   0.92532   0.99976   0.00000  Uiso   1.00
N228   N     0.38079   0.25990   0.89165   0.00000  Uiso   1.00
N229   N     0.36049   0.15164   0.30398   0.00000  Uiso   1.00
N230   N     0.38777   0.91871   0.99334   0.00000  Uiso   1.00
C231   C     0.04742   0.94903   0.31810   0.00000  Uiso   1.00
C232   C     0.12082   0.96767   0.31121   0.00000  Uiso   1.00
C233   C     0.17123   0.96017   0.25770   0.00000  Uiso   1.00
C234   C     0.23514   0.98021   0.26085   0.00000  Uiso   1.00
C235   C     0.34713   0.00514   0.24182   0.00000  Uiso   1.00
C236   C     0.99595   0.99826   0.33192   0.00000  Uiso   1.00
C237   C     0.94135   0.01647   0.29582   0.00000  Uiso   1.00
C238   C     0.90014   0.06226   0.31641   0.00000  Uiso   1.00
C239   C     0.81822   0.13465   0.32956   0.00000  Uiso   1.00
C240   C     0.04185   0.91472   0.38019   0.00000  Uiso   1.00
C241   C     0.02583   0.86268   0.38469   0.00000  Uiso   1.00
C242   C     0.02325   0.83813   0.44592   0.00000  Uiso   1.00
C243   C     0.01260   0.78081   0.53401   0.00000  Uiso   1.00
C244   C     0.07129   0.99799   0.41883   0.00000  Uiso   1.00
C245   C     0.13379   0.99426   0.36593   0.00000  Uiso   1.00
C246   C     0.19764   0.01433   0.36916   0.00000  Uiso   1.00
C247   C     0.24813   0.00685   0.31567   0.00000  Uiso   1.00
C248   C     0.00891   0.02485   0.38663   0.00000  Uiso   1.00
C249   C     0.96776   0.07063   0.40728   0.00000  Uiso   1.00
C250   C     0.91313   0.08890   0.37122   0.00000  Uiso   1.00
C251   C     0.05482   0.94130   0.43491   0.00000  Uiso   1.00
C252   C     0.05225   0.91684   0.49614   0.00000  Uiso   1.00
C253   C     0.03624   0.86477   0.50073   0.00000  Uiso   1.00
H254   H     0.03732   0.92834   0.27550   0.00000  Uiso   1.00
H255   H     0.16117   0.93959   0.21537   0.00000  Uiso   1.00
H256   H     0.93133   0.99588   0.25349   0.00000  Uiso   1.00
H257   H     0.01580   0.84212   0.34233   0.00000  Uiso   1.00
H258   H     0.30419   0.96381   0.17282   0.00000  Uiso   1.00
H259   H     0.81954   0.08249   0.25321   0.00000  Uiso   1.00
H260   H     0.99766   0.75825   0.44057   0.00000  Uiso   1.00
H261   H     0.08139   0.01869   0.46144   0.00000  Uiso   1.00
H262   H     0.20766   0.03490   0.41151   0.00000  Uiso   1.00
H263   H     0.97781   0.09119   0.44963   0.00000  Uiso   1.00
H264   H     0.06229   0.93743   0.53847   0.00000  Uiso   1.00
H265   H     0.34192   0.04117   0.33202   0.00000  Uiso   1.00
H266   H     0.85726   0.15985   0.41241   0.00000  Uiso   1.00
H267   H     0.03539   0.83561   0.59976   0.00000  Uiso   1.00
O268   O     0.40531   0.01154   0.21621   0.00000  Uiso   1.00
O269   O     0.76946   0.16724   0.32169   0.00000  Uiso   1.00
O270   O     0.00316   0.74184   0.56749   0.00000  Uiso   1.00
N271   N     0.29574   0.97979   0.21714   0.00000  Uiso   1.00
N272   N     0.84263   0.09075   0.29230   0.00000  Uiso   1.00
N273   N     0.00914   0.78761   0.46746   0.00000  Uiso   1.00
N274   N     0.31605   0.02141   0.30281   0.00000  Uiso   1.00
N275   N     0.86293   0.13237   0.37796   0.00000  Uiso   1.00
N276   N     0.02945   0.82924   0.55312   0.00000  Uiso   1.00
C277   C     0.50229   0.30807   0.21051   0.00000  Uiso   1.00
C278   C     0.55563   0.26158   0.18878   0.00000  Uiso   1.00
C279   C     0.59832   0.23096   0.22846   0.00000  Uiso   1.00
C280   C     0.64362   0.19023   0.19931   0.00000  Uiso   1.00
C281   C     0.72604   0.11950   0.17568   0.00000  Uiso   1.00
C282   C     0.43179   0.29515   0.19162   0.00000  Uiso   1.00
C283   C     0.37035   0.29276   0.23369   0.00000  Uiso   1.00
C284   C     0.31139   0.28030   0.20692   0.00000  Uiso   1.00
C285   C     0.20152   0.26174   0.18769   0.00000  Uiso   1.00
C286   C     0.52257   0.35521   0.16730   0.00000  Uiso   1.00
C287   C     0.53744   0.40334   0.18891   0.00000  Uiso   1.00
C288   C     0.55491   0.44145   0.14166   0.00000  Uiso   1.00
C289   C     0.58600   0.51614   0.08467   0.00000  Uiso   1.00
C290   C     0.50684   0.29019   0.08817   0.00000  Uiso   1.00
C291   C     0.55810   0.25187   0.12233   0.00000  Uiso   1.00
C292   C     0.60335   0.21118   0.09310   0.00000  Uiso   1.00
C293   C     0.64609   0.18050   0.13274   0.00000  Uiso   1.00
C294   C     0.43425   0.28544   0.12517   0.00000  Uiso   1.00
C295   C     0.37537   0.27298   0.09833   0.00000  Uiso   1.00
C296   C     0.31386   0.27057   0.14035   0.00000  Uiso   1.00
C297   C     0.52504   0.34550   0.10085   0.00000  Uiso   1.00
C298   C     0.54248   0.38355   0.05355   0.00000  Uiso   1.00
C299   C     0.55738   0.43172   0.07509   0.00000  Uiso   1.00
H300   H     0.50037   0.31563   0.26225   0.00000  Uiso   1.00
H301   H     0.59639   0.23848   0.27989   0.00000  Uiso   1.00
H302   H     0.36845   0.30028   0.28511   0.00000  Uiso   1.00
H303   H     0.53553   0.41084   0.24034   0.00000  Uiso   1.00
H304   H     0.70391   0.14866   0.27015   0.00000  Uiso   1.00
H305   H     0.22329   0.27899   0.28115   0.00000  Uiso   1.00
H306   H     0.57560   0.51211   0.18675   0.00000  Uiso   1.00
H307   H     0.50876   0.28263   0.03643   0.00000  Uiso   1.00
H308   H     0.60524   0.20367   0.04168   0.00000  Uiso   1.00
H309   H     0.37730   0.26547   0.04690   0.00000  Uiso   1.00
H310   H     0.54438   0.37603   0.00213   0.00000  Uiso   1.00
H311   H     0.71110   0.12040   0.07681   0.00000  Uiso   1.00
H312   H     0.23047   0.25074   0.08781   0.00000  Uiso   1.00
H313   H     0.58279   0.48386   0.99341   0.00000  Uiso   1.00
O314   O     0.77081   0.08317   0.18101   0.00000  Uiso   1.00
O315   O     0.14024   0.25417   0.19544   0.00000  Uiso   1.00
O316   O     0.60248   0.56002   0.07159   0.00000  Uiso   1.00
N317   N     0.69237   0.15285   0.22392   0.00000  Uiso   1.00
N318   N     0.24302   0.27469   0.23421   0.00000  Uiso   1.00
N319   N     0.57239   0.49265   0.14595   0.00000  Uiso   1.00
N320   N     0.69624   0.13765   0.11989   0.00000  Uiso   1.00
N321   N     0.24689   0.25949   0.13018   0.00000  Uiso   1.00
N322   N     0.57626   0.47745   0.04192   0.00000  Uiso   1.00
C323   C     0.19251   0.39617   0.32001   0.00000  Uiso   1.00
C324   C     0.18673   0.39927   0.24704   0.00000  Uiso   1.00
C325   C     0.24279   0.39839   0.19814   0.00000  Uiso   1.00
C326   C     0.22652   0.40165   0.13437   0.00000  Uiso   1.00
C327   C     0.22818   0.40583   0.02324   0.00000  Uiso   1.00
C328   C     0.15407   0.34910   0.34664   0.00000  Uiso   1.00
C329   C     0.18267   0.30603   0.38151   0.00000  Uiso   1.00
C330   C     0.13889   0.26706   0.40159   0.00000  Uiso   1.00
C331   C     0.08982   0.19336   0.44515   0.00000  Uiso   1.00
C332   C     0.14859   0.44518   0.34832   0.00000  Uiso   1.00
C333   C     0.17257   0.48289   0.38460   0.00000  Uiso   1.00
C334   C     0.12417   0.52480   0.40611   0.00000  Uiso   1.00
C335   C     0.06660   0.60029   0.45226   0.00000  Uiso   1.00
C336   C     0.06391   0.40354   0.29370   0.00000  Uiso   1.00
C337   C     0.11688   0.40328   0.23275   0.00000  Uiso   1.00
C338   C     0.10051   0.40654   0.16904   0.00000  Uiso   1.00
C339   C     0.15654   0.40566   0.12006   0.00000  Uiso   1.00
C340   C     0.08422   0.35310   0.33236   0.00000  Uiso   1.00
C341   C     0.04039   0.31418   0.35240   0.00000  Uiso   1.00
C342   C     0.06891   0.27107   0.38728   0.00000  Uiso   1.00
C343   C     0.07874   0.44918   0.33403   0.00000  Uiso   1.00
C344   C     0.03029   0.49104   0.35549   0.00000  Uiso   1.00
C345   C     0.05419   0.52881   0.39180   0.00000  Uiso   1.00
H346   H     0.24689   0.39305   0.33113   0.00000  Uiso   1.00
H347   H     0.29684   0.39528   0.20922   0.00000  Uiso   1.00
H348   H     0.23672   0.30295   0.39256   0.00000  Uiso   1.00
H349   H     0.22663   0.47978   0.39565   0.00000  Uiso   1.00
H350   H     0.32143   0.39950   0.06775   0.00000  Uiso   1.00
H351   H     0.19465   0.20481   0.45436   0.00000  Uiso   1.00
H352   H     0.17336   0.57770   0.46087   0.00000  Uiso   1.00
H353   H     0.00952   0.40666   0.28258   0.00000  Uiso   1.00
H354   H     0.04645   0.40964   0.15800   0.00000  Uiso   1.00
H355   H     0.98633   0.31730   0.34134   0.00000  Uiso   1.00
H356   H     0.97624   0.49413   0.34443   0.00000  Uiso   1.00
H357   H     0.11820   0.41115   0.02618   0.00000  Uiso   1.00
H358   H     0.99142   0.21646   0.41279   0.00000  Uiso   1.00
H359   H     0.97014   0.58935   0.41930   0.00000  Uiso   1.00
O360   O     0.24839   0.40702   0.96589   0.00000  Uiso   1.00
O361   O     0.08206   0.15161   0.47311   0.00000  Uiso   1.00
O362   O     0.05414   0.64082   0.48165   0.00000  Uiso   1.00
N363   N     0.26853   0.40185   0.07506   0.00000  Uiso   1.00
N364   N     0.15000   0.21982   0.43651   0.00000  Uiso   1.00
N365   N     0.13010   0.56843   0.44262   0.00000  Uiso   1.00
N366   N     0.15917   0.40811   0.05270   0.00000  Uiso   1.00
N367   N     0.04065   0.22609   0.41414   0.00000  Uiso   1.00
N368   N     0.02074   0.57470   0.42025   0.00000  Uiso   1.00
C369   C     0.32254   0.08967   0.67907   0.00000  Uiso   1.00
C370   C     0.24705   0.10283   0.66313   0.00000  Uiso   1.00
C371   C     0.19309   0.13098   0.70201   0.00000  Uiso   1.00
C372   C     0.12776   0.13886   0.67879   0.00000  Uiso   1.00
C373   C     0.01221   0.16230   0.66314   0.00000  Uiso   1.00
C374   C     0.36942   0.11183   0.62214   0.00000  Uiso   1.00
C375   C     0.41835   0.14753   0.62657   0.00000  Uiso   1.00
C376   C     0.45604   0.16299   0.56884   0.00000  Uiso   1.00
C377   C     0.53051   0.20036   0.48957   0.00000  Uiso   1.00
C378   C     0.33739   0.02965   0.67627   0.00000  Uiso   1.00
C379   C     0.35941   0.99626   0.72621   0.00000  Uiso   1.00
C380   C     0.37015   0.94253   0.71404   0.00000  Uiso   1.00
C381   C     0.39490   0.85231   0.71882   0.00000  Uiso   1.00
C382   C     0.30247   0.05362   0.56866   0.00000  Uiso   1.00
C383   C     0.23615   0.08325   0.60316   0.00000  Uiso   1.00
C384   C     0.17089   0.09109   0.57986   0.00000  Uiso   1.00
C385   C     0.11684   0.11924   0.61871   0.00000  Uiso   1.00
C386   C     0.35852   0.09225   0.56217   0.00000  Uiso   1.00
C387   C     0.39615   0.10765   0.50442   0.00000  Uiso   1.00
C388   C     0.44512   0.14337   0.50876   0.00000  Uiso   1.00
C389   C     0.32649   0.01007   0.61630   0.00000  Uiso   1.00
C390   C     0.33721   0.95638   0.60406   0.00000  Uiso   1.00
C391   C     0.35924   0.92291   0.65397   0.00000  Uiso   1.00
H392   H     0.33102   0.10492   0.72575   0.00000  Uiso   1.00
H393   H     0.20154   0.14613   0.74842   0.00000  Uiso   1.00
H394   H     0.42678   0.16268   0.67298   0.00000  Uiso   1.00
H395   H     0.36784   0.01143   0.77261   0.00000  Uiso   1.00
H396   H     0.05319   0.18320   0.74709   0.00000  Uiso   1.00
H397   H     0.52812   0.21808   0.58804   0.00000  Uiso   1.00
H398   H     0.40385   0.89915   0.79811   0.00000  Uiso   1.00
H399   H     0.29399   0.03837   0.52197   0.00000  Uiso   1.00
H400   H     0.16247   0.07593   0.53345   0.00000  Uiso   1.00
H401   H     0.38771   0.09248   0.45802   0.00000  Uiso   1.00
H402   H     0.32877   0.94124   0.55764   0.00000  Uiso   1.00
H403   H     0.02148   0.12623   0.57262   0.00000  Uiso   1.00
H404   H     0.49642   0.16111   0.41357   0.00000  Uiso   1.00
H405   H     0.37214   0.84218   0.62364   0.00000  Uiso   1.00
O406   O     0.95149   0.18064   0.67108   0.00000  Uiso   1.00
O407   O     0.57460   0.22639   0.46241   0.00000  Uiso   1.00
O408   O     0.41155   0.80796   0.73802   0.00000  Uiso   1.00
N409   N     0.06377   0.16463   0.70446   0.00000  Uiso   1.00
N410   N     0.50780   0.19725   0.55575   0.00000  Uiso   1.00
N411   N     0.39164   0.89907   0.75215   0.00000  Uiso   1.00
N412   N     0.04671   0.13397   0.61058   0.00000  Uiso   1.00
N413   N     0.49074   0.16659   0.46187   0.00000  Uiso   1.00
N414   N     0.37457   0.86842   0.65827   0.00000  Uiso   1.00
C415   C     0.13538   0.59778   0.82755   0.00000  Uiso   1.00
C416   C     0.14069   0.61487   0.75582   0.00000  Uiso   1.00
C417   C     0.19761   0.63620   0.72085   0.00000  Uiso   1.00
C418   C     0.19224   0.64928   0.65572   0.00000  Uiso   1.00
C419   C     0.20962   0.67704   0.54877   0.00000  Uiso   1.00
C420   C     0.06878   0.62848   0.86003   0.00000  Uiso   1.00
C421   C     0.06525   0.66126   0.91269   0.00000  Uiso   1.00
C422   C     0.99934   0.68579   0.93529   0.00000  Uiso   1.00
C423   C     0.90507   0.73466   0.99017   0.00000  Uiso   1.00
C424   C     0.12077   0.53994   0.83014   0.00000  Uiso   1.00
C425   C     0.16093   0.49826   0.85767   0.00000  Uiso   1.00
C426   C     0.13878   0.44825   0.85511   0.00000  Uiso   1.00
C427   C     0.12523   0.35964   0.86357   0.00000  Uiso   1.00
C428   C     0.02462   0.58308   0.77407   0.00000  Uiso   1.00
C429   C     0.08053   0.60688   0.72677   0.00000  Uiso   1.00
C430   C     0.07507   0.61993   0.66168   0.00000  Uiso   1.00
C431   C     0.13197   0.64128   0.62661   0.00000  Uiso   1.00
C432   C     0.00862   0.62050   0.83099   0.00000  Uiso   1.00
C433   C     0.94270   0.64499   0.85352   0.00000  Uiso   1.00
C434   C     0.93907   0.67779   0.90619   0.00000  Uiso   1.00
C435   C     0.06061   0.53195   0.80109   0.00000  Uiso   1.00
C436   C     0.03838   0.48199   0.79850   0.00000  Uiso   1.00
C437   C     0.07851   0.44025   0.82602   0.00000  Uiso   1.00
H438   H     0.18222   0.60401   0.85016   0.00000  Uiso   1.00
H439   H     0.24416   0.64238   0.74335   0.00000  Uiso   1.00
H440   H     0.11181   0.66743   0.93516   0.00000  Uiso   1.00
H441   H     0.20748   0.50446   0.88014   0.00000  Uiso   1.00
H442   H     0.28629   0.68142   0.61212   0.00000  Uiso   1.00
H443   H     0.00723   0.73422   0.01658   0.00000  Uiso   1.00
H444   H     0.20896   0.39057   0.90057   0.00000  Uiso   1.00
H445   H     0.97778   0.57686   0.75145   0.00000  Uiso   1.00
H446   H     0.02850   0.61374   0.63921   0.00000  Uiso   1.00
H447   H     0.89616   0.63879   0.83103   0.00000  Uiso   1.00
H448   H     0.99183   0.47583   0.77601   0.00000  Uiso   1.00
H449   H     0.11126   0.65818   0.52760   0.00000  Uiso   1.00
H450   H     0.83219   0.71098   0.93207   0.00000  Uiso   1.00
H451   H     0.03393   0.36733   0.81605   0.00000  Uiso   1.00
O452   O     0.23582   0.69457   0.49781   0.00000  Uiso   1.00
O453   O     0.86970   0.76383   0.02846   0.00000  Uiso   1.00
O454   O     0.13438   0.31297   0.87626   0.00000  Uiso   1.00
N455   N     0.23814   0.67088   0.60762   0.00000  Uiso   1.00
N456   N     0.97724   0.72025   0.98577   0.00000  Uiso   1.00
N457   N     0.16583   0.39897   0.87733   0.00000  Uiso   1.00
N458   N     0.14396   0.65837   0.56214   0.00000  Uiso   1.00
N459   N     0.88305   0.70774   0.94029   0.00000  Uiso   1.00
N460   N     0.07165   0.38646   0.83185   0.00000  Uiso   1.00
C461   C     0.66378   0.79212   0.02813   0.00000  Uiso   1.00
C462   C     0.63736   0.74748   0.07255   0.00000  Uiso   1.00
C463   C     0.67934   0.70693   0.10016   0.00000  Uiso   1.00
C464   C     0.64506   0.66991   0.13937   0.00000  Uiso   1.00
C465   C     0.61523   0.60005   0.20662   0.00000  Uiso   1.00
C466   C     0.62942   0.78978   0.96563   0.00000  Uiso   1.00
C467   C     0.66473   0.78483   0.90334   0.00000  Uiso   1.00
C468   C     0.62377   0.78342   0.85255   0.00000  Uiso   1.00
C469   C     0.58161   0.77929   0.75379   0.00000  Uiso   1.00
C470   C     0.63168   0.84343   0.06028   0.00000  Uiso   1.00
C471   C     0.66889   0.88359   0.07757   0.00000  Uiso   1.00
C472   C     0.62983   0.92737   0.10645   0.00000  Uiso   1.00
C473   C     0.59119   0.00653   0.15466   0.00000  Uiso   1.00
C474   C     0.52825   0.79845   0.04866   0.00000  Uiso   1.00
C475   C     0.56374   0.75092   0.08370   0.00000  Uiso   1.00
C476   C     0.52939   0.71394   0.12288   0.00000  Uiso   1.00
C477   C     0.57131   0.67335   0.15055   0.00000  Uiso   1.00
C478   C     0.55581   0.79323   0.97678   0.00000  Uiso   1.00
C479   C     0.51478   0.79183   0.92606   0.00000  Uiso   1.00
C480   C     0.55002   0.78687   0.86372   0.00000  Uiso   1.00
C481   C     0.55807   0.84688   0.07144   0.00000  Uiso   1.00
C482   C     0.51894   0.89060   0.10029   0.00000  Uiso   1.00
C483   C     0.55608   0.93081   0.11762   0.00000  Uiso   1.00
H484   H     0.72109   0.78944   0.01945   0.00000  Uiso   1.00
H485   H     0.73630   0.70428   0.09152   0.00000  Uiso   1.00
H486   H     0.72170   0.78217   0.89473   0.00000  Uiso   1.00
H487   H     0.72586   0.88092   0.06893   0.00000  Uiso   1.00
H488   H     0.72071   0.61138   0.17632   0.00000  Uiso   1.00
H489   H     0.68991   0.77562   0.76138   0.00000  Uiso   1.00
H490   H     0.69868   0.98385   0.12872   0.00000  Uiso   1.00
H491   H     0.47093   0.80113   0.05735   0.00000  Uiso   1.00
H492   H     0.47242   0.71661   0.13150   0.00000  Uiso   1.00
H493   H     0.45782   0.79450   0.93471   0.00000  Uiso   1.00
H494   H     0.46198   0.89325   0.10891   0.00000  Uiso   1.00
H495   H     0.50653   0.62138   0.20877   0.00000  Uiso   1.00
H496   H     0.47573   0.78563   0.79383   0.00000  Uiso   1.00
H497   H     0.48451   0.99386   0.16117   0.00000  Uiso   1.00
O498   O     0.61911   0.56056   0.24062   0.00000  Uiso   1.00
O499   O     0.57870   0.77605   0.69624   0.00000  Uiso   1.00
O500   O     0.59022   0.04925   0.17818   0.00000  Uiso   1.00
N501   N     0.67010   0.62534   0.17379   0.00000  Uiso   1.00
N502   N     0.64130   0.77889   0.78585   0.00000  Uiso   1.00
N503   N     0.64950   0.97357   0.12926   0.00000  Uiso   1.00
N504   N     0.55485   0.63072   0.19125   0.00000  Uiso   1.00
N505   N     0.52605   0.78427   0.80331   0.00000  Uiso   1.00
N506   N     0.53426   0.97896   0.14672   0.00000  Uiso   1.00
C507   C     0.86505   0.97183   0.77464   0.00000  Uiso   1.00
C508   C     0.79213   0.95576   0.79899   0.00000  Uiso   1.00
C509   C     0.75502   0.96722   0.85931   0.00000  Uiso   1.00
C510   C     0.68911   0.94900   0.87234   0.00000  Uiso   1.00
C511   C     0.58013   0.92838   0.91711   0.00000  Uiso   1.00
C512   C     0.91086   0.92070   0.75636   0.00000  Uiso   1.00
C513   C     0.97358   0.90268   0.78082   0.00000  Uiso   1.00
C514   C     0.00762   0.85495   0.75795   0.00000  Uiso   1.00
C515   C     0.08300   0.77992   0.73649   0.00000  Uiso   1.00
C516   C     0.85715   0.00289   0.71094   0.00000  Uiso   1.00
C517   C     0.87473   0.05398   0.69721   0.00000  Uiso   1.00
C518   C     0.86356   0.07545   0.63610   0.00000  Uiso   1.00
C519   C     0.85554   0.12803   0.54413   0.00000  Uiso   1.00
C520   C     0.81399   0.91910   0.69053   0.00000  Uiso   1.00
C521   C     0.76441   0.92712   0.75330   0.00000  Uiso   1.00
C522   C     0.69853   0.90888   0.76625   0.00000  Uiso   1.00
C523   C     0.66132   0.92031   0.82657   0.00000  Uiso   1.00
C524   C     0.88314   0.89206   0.71067   0.00000  Uiso   1.00
C525   C     0.91709   0.84435   0.68776   0.00000  Uiso   1.00
C526   C     0.97984   0.82626   0.71218   0.00000  Uiso   1.00
C527   C     0.82942   0.97425   0.66525   0.00000  Uiso   1.00
C528   C     0.81823   0.99564   0.60415   0.00000  Uiso   1.00
C529   C     0.83578   0.04675   0.59033   0.00000  Uiso   1.00
H530   H     0.88664   0.99412   0.81021   0.00000  Uiso   1.00
H531   H     0.77650   0.98938   0.89465   0.00000  Uiso   1.00
H532   H     0.99503   0.92486   0.81617   0.00000  Uiso   1.00
H533   H     0.89618   0.07613   0.73258   0.00000  Uiso   1.00
H534   H     0.64217   0.97147   0.96814   0.00000  Uiso   1.00
H535   H     0.10297   0.83543   0.80263   0.00000  Uiso   1.00
H536   H     0.89454   0.15442   0.62636   0.00000  Uiso   1.00
H537   H     0.79240   0.89680   0.65496   0.00000  Uiso   1.00
H538   H     0.67708   0.88672   0.73088   0.00000  Uiso   1.00
H539   H     0.89562   0.82220   0.65240   0.00000  Uiso   1.00
H540   H     0.79677   0.97347   0.56881   0.00000  Uiso   1.00
H541   H     0.56149   0.88814   0.83522   0.00000  Uiso   1.00
H542   H     0.02229   0.75211   0.66971   0.00000  Uiso   1.00
H543   H     0.81385   0.07110   0.49344   0.00000  Uiso   1.00
O544   O     0.52768   0.92491   0.95443   0.00000  Uiso   1.00
O545   O     0.13224   0.74645   0.73729   0.00000  Uiso   1.00
O546   O     0.85877   0.16495   0.50603   0.00000  Uiso   1.00
N547   N     0.63900   0.95325   0.92643   0.00000  Uiso   1.00
N548   N     0.06981   0.82606   0.77170   0.00000  Uiso   1.00
N549   N     0.87496   0.12428   0.60689   0.00000  Uiso   1.00
N550   N     0.59558   0.90842   0.85491   0.00000  Uiso   1.00
N551   N     0.02640   0.78123   0.70018   0.00000  Uiso   1.00
N552   N     0.83155   0.07945   0.53537   0.00000  Uiso   1.00
