data_job_03689
_audit_creation_date              2018-12-19
_audit_creation_method            'Materials Studio'
_symmetry_space_group_name_H-M    'P1'
_symmetry_Int_Tables_number       1
_symmetry_cell_setting            triclinic
loop_
_symmetry_equiv_pos_as_xyz
  x,y,z
_cell_length_a                    29.7754
_cell_length_b                    12.9085
_cell_length_c                    15.3758
_cell_angle_alpha                 90.0000
_cell_angle_beta                  90.0000
_cell_angle_gamma                 90.0000
loop_
_atom_site_label
_atom_site_type_symbol
_atom_site_fract_x
_atom_site_fract_y
_atom_site_fract_z
_atom_site_U_iso_or_equiv
_atom_site_adp_type
_atom_site_occupancy
C1     C     0.38051   0.07836   0.62708   0.00000  Uiso   1.00
C2     C     0.33812   0.09443   0.68108   0.00000  Uiso   1.00
C3     C     0.33505   0.08512   0.77079   0.00000  Uiso   1.00
C4     C     0.29325   0.10290   0.80794   0.00000  Uiso   1.00
C5     C     0.23311   0.12382   0.89951   0.00000  Uiso   1.00
C6     C     0.36896   0.99534   0.56016   0.00000  Uiso   1.00
C7     C     0.39181   0.90273   0.54821   0.00000  Uiso   1.00
C8     C     0.37598   0.83711   0.48357   0.00000  Uiso   1.00
C9     C     0.36373   0.70423   0.38737   0.00000  Uiso   1.00
C10    C     0.38733   0.17830   0.57588   0.00000  Uiso   1.00
C11    C     0.42565   0.23950   0.57712   0.00000  Uiso   1.00
C12    C     0.42529   0.32791   0.52568   0.00000  Uiso   1.00
C13    C     0.44157   0.47909   0.45389   0.00000  Uiso   1.00
C14    C     0.31175   0.12651   0.53351   0.00000  Uiso   1.00
C15    C     0.30077   0.12058   0.63025   0.00000  Uiso   1.00
C16    C     0.25897   0.13839   0.66727   0.00000  Uiso   1.00
C17    C     0.25584   0.12910   0.75703   0.00000  Uiso   1.00
C18    C     0.33161   0.02149   0.50934   0.00000  Uiso   1.00
C19    C     0.31574   0.95600   0.44469   0.00000  Uiso   1.00
C20    C     0.33857   0.86331   0.43265   0.00000  Uiso   1.00
C21    C     0.34999   0.20445   0.52505   0.00000  Uiso   1.00
C22    C     0.34957   0.29277   0.47360   0.00000  Uiso   1.00
C23    C     0.38788   0.35410   0.47477   0.00000  Uiso   1.00
H24    H     0.40959   0.05800   0.66664   0.00000  Uiso   1.00
H25    H     0.36395   0.06487   0.81010   0.00000  Uiso   1.00
H26    H     0.42072   0.88252   0.58755   0.00000  Uiso   1.00
H27    H     0.45454   0.21924   0.61646   0.00000  Uiso   1.00
H28    H     0.29689   0.08398   0.94674   0.00000  Uiso   1.00
H29    H     0.41658   0.69950   0.47745   0.00000  Uiso   1.00
H30    H     0.48792   0.40954   0.53840   0.00000  Uiso   1.00
H31    H     0.28268   0.14687   0.49394   0.00000  Uiso   1.00
H32    H     0.23008   0.15862   0.62792   0.00000  Uiso   1.00
H33    H     0.28684   0.97626   0.40537   0.00000  Uiso   1.00
H34    H     0.32067   0.31299   0.43427   0.00000  Uiso   1.00
H35    H     0.18823   0.16007   0.79887   0.00000  Uiso   1.00
H36    H     0.30793   0.77559   0.32958   0.00000  Uiso   1.00
H37    H     0.37926   0.48563   0.39054   0.00000  Uiso   1.00
O38    O     0.21025   0.12812   0.96406   0.00000  Uiso   1.00
O39    O     0.36729   0.62371   0.34836   0.00000  Uiso   1.00
O40    O     0.46087   0.55526   0.42833   0.00000  Uiso   1.00
N41    N     0.27854   0.10030   0.89355   0.00000  Uiso   1.00
N42    N     0.39044   0.74082   0.45481   0.00000  Uiso   1.00
N43    N     0.45713   0.40464   0.51177   0.00000  Uiso   1.00
N44    N     0.22007   0.14124   0.81399   0.00000  Uiso   1.00
N45    N     0.33197   0.78177   0.37524   0.00000  Uiso   1.00
N46    N     0.39867   0.44558   0.43221   0.00000  Uiso   1.00
C47    C     0.11949   0.92164   0.62708   0.00000  Uiso   1.00
C48    C     0.16188   0.90557   0.68108   0.00000  Uiso   1.00
C49    C     0.16495   0.91488   0.77079   0.00000  Uiso   1.00
C50    C     0.20675   0.89710   0.80794   0.00000  Uiso   1.00
C51    C     0.26689   0.87618   0.89951   0.00000  Uiso   1.00
C52    C     0.13104   0.00466   0.56016   0.00000  Uiso   1.00
C53    C     0.10819   0.09727   0.54821   0.00000  Uiso   1.00
C54    C     0.12402   0.16289   0.48357   0.00000  Uiso   1.00
C55    C     0.13627   0.29577   0.38737   0.00000  Uiso   1.00
C56    C     0.11267   0.82170   0.57588   0.00000  Uiso   1.00
C57    C     0.07435   0.76050   0.57712   0.00000  Uiso   1.00
C58    C     0.07471   0.67209   0.52568   0.00000  Uiso   1.00
C59    C     0.05843   0.52091   0.45389   0.00000  Uiso   1.00
C60    C     0.18825   0.87349   0.53351   0.00000  Uiso   1.00
C61    C     0.19923   0.87942   0.63025   0.00000  Uiso   1.00
C62    C     0.24103   0.86161   0.66727   0.00000  Uiso   1.00
C63    C     0.24416   0.87090   0.75703   0.00000  Uiso   1.00
C64    C     0.16839   0.97851   0.50934   0.00000  Uiso   1.00
C65    C     0.18426   0.04400   0.44469   0.00000  Uiso   1.00
C66    C     0.16143   0.13669   0.43265   0.00000  Uiso   1.00
C67    C     0.15001   0.79555   0.52505   0.00000  Uiso   1.00
C68    C     0.15043   0.70723   0.47360   0.00000  Uiso   1.00
C69    C     0.11212   0.64590   0.47477   0.00000  Uiso   1.00
H70    H     0.09041   0.94200   0.66664   0.00000  Uiso   1.00
H71    H     0.13605   0.93513   0.81010   0.00000  Uiso   1.00
H72    H     0.07928   0.11748   0.58755   0.00000  Uiso   1.00
H73    H     0.04546   0.78076   0.61646   0.00000  Uiso   1.00
H74    H     0.20311   0.91602   0.94674   0.00000  Uiso   1.00
H75    H     0.08342   0.30050   0.47745   0.00000  Uiso   1.00
H76    H     0.01208   0.59046   0.53840   0.00000  Uiso   1.00
H77    H     0.21732   0.85313   0.49394   0.00000  Uiso   1.00
H78    H     0.26992   0.84138   0.62792   0.00000  Uiso   1.00
H79    H     0.21316   0.02374   0.40537   0.00000  Uiso   1.00
H80    H     0.17933   0.68701   0.43427   0.00000  Uiso   1.00
H81    H     0.31177   0.83993   0.79887   0.00000  Uiso   1.00
H82    H     0.19207   0.22441   0.32958   0.00000  Uiso   1.00
H83    H     0.12074   0.51437   0.39054   0.00000  Uiso   1.00
O84    O     0.28975   0.87188   0.96406   0.00000  Uiso   1.00
O85    O     0.13271   0.37629   0.34836   0.00000  Uiso   1.00
O86    O     0.03913   0.44474   0.42833   0.00000  Uiso   1.00
N87    N     0.22146   0.89970   0.89355   0.00000  Uiso   1.00
N88    N     0.10956   0.25918   0.45481   0.00000  Uiso   1.00
N89    N     0.04287   0.59536   0.51177   0.00000  Uiso   1.00
N90    N     0.27993   0.85876   0.81399   0.00000  Uiso   1.00
N91    N     0.16803   0.21823   0.37524   0.00000  Uiso   1.00
N92    N     0.10133   0.55442   0.43221   0.00000  Uiso   1.00
C93    C     0.11949   0.57836   0.87292   0.00000  Uiso   1.00
C94    C     0.16188   0.59443   0.81892   0.00000  Uiso   1.00
C95    C     0.16495   0.58512   0.72921   0.00000  Uiso   1.00
C96    C     0.20675   0.60290   0.69206   0.00000  Uiso   1.00
C97    C     0.26689   0.62382   0.60049   0.00000  Uiso   1.00
C98    C     0.13104   0.49534   0.93984   0.00000  Uiso   1.00
C99    C     0.10819   0.40273   0.95179   0.00000  Uiso   1.00
C100   C     0.12402   0.33711   0.01643   0.00000  Uiso   1.00
C101   C     0.13627   0.20423   0.11263   0.00000  Uiso   1.00
C102   C     0.11267   0.67830   0.92412   0.00000  Uiso   1.00
C103   C     0.07435   0.73950   0.92288   0.00000  Uiso   1.00
C104   C     0.07471   0.82791   0.97432   0.00000  Uiso   1.00
C105   C     0.05843   0.97909   0.04611   0.00000  Uiso   1.00
C106   C     0.18825   0.62651   0.96649   0.00000  Uiso   1.00
C107   C     0.19923   0.62058   0.86975   0.00000  Uiso   1.00
C108   C     0.24103   0.63839   0.83273   0.00000  Uiso   1.00
C109   C     0.24416   0.62910   0.74297   0.00000  Uiso   1.00
C110   C     0.16839   0.52149   0.99066   0.00000  Uiso   1.00
C111   C     0.18426   0.45600   0.05531   0.00000  Uiso   1.00
C112   C     0.16143   0.36331   0.06735   0.00000  Uiso   1.00
C113   C     0.15001   0.70445   0.97495   0.00000  Uiso   1.00
C114   C     0.15043   0.79277   0.02640   0.00000  Uiso   1.00
C115   C     0.11212   0.85410   0.02523   0.00000  Uiso   1.00
H116   H     0.09041   0.55800   0.83336   0.00000  Uiso   1.00
H117   H     0.13605   0.56487   0.68990   0.00000  Uiso   1.00
H118   H     0.07928   0.38252   0.91245   0.00000  Uiso   1.00
H119   H     0.04546   0.71924   0.88354   0.00000  Uiso   1.00
H120   H     0.20311   0.58398   0.55326   0.00000  Uiso   1.00
H121   H     0.08342   0.19950   0.02255   0.00000  Uiso   1.00
H122   H     0.01208   0.90954   0.96160   0.00000  Uiso   1.00
H123   H     0.21732   0.64687   0.00606   0.00000  Uiso   1.00
H124   H     0.26992   0.65862   0.87208   0.00000  Uiso   1.00
H125   H     0.21316   0.47626   0.09463   0.00000  Uiso   1.00
H126   H     0.17933   0.81299   0.06573   0.00000  Uiso   1.00
H127   H     0.31177   0.66007   0.70113   0.00000  Uiso   1.00
H128   H     0.19207   0.27559   0.17042   0.00000  Uiso   1.00
H129   H     0.12074   0.98563   0.10946   0.00000  Uiso   1.00
O130   O     0.28975   0.62812   0.53594   0.00000  Uiso   1.00
O131   O     0.13271   0.12371   0.15164   0.00000  Uiso   1.00
O132   O     0.03913   0.05526   0.07167   0.00000  Uiso   1.00
N133   N     0.22146   0.60030   0.60645   0.00000  Uiso   1.00
N134   N     0.10956   0.24082   0.04519   0.00000  Uiso   1.00
N135   N     0.04287   0.90464   0.98823   0.00000  Uiso   1.00
N136   N     0.27993   0.64124   0.68601   0.00000  Uiso   1.00
N137   N     0.16803   0.28177   0.12476   0.00000  Uiso   1.00
N138   N     0.10133   0.94558   0.06779   0.00000  Uiso   1.00
C139   C     0.38051   0.42164   0.87292   0.00000  Uiso   1.00
C140   C     0.33812   0.40557   0.81892   0.00000  Uiso   1.00
C141   C     0.33505   0.41488   0.72921   0.00000  Uiso   1.00
C142   C     0.29325   0.39710   0.69206   0.00000  Uiso   1.00
C143   C     0.23311   0.37618   0.60049   0.00000  Uiso   1.00
C144   C     0.36896   0.50466   0.93984   0.00000  Uiso   1.00
C145   C     0.39181   0.59727   0.95179   0.00000  Uiso   1.00
C146   C     0.37598   0.66289   0.01643   0.00000  Uiso   1.00
C147   C     0.36373   0.79577   0.11263   0.00000  Uiso   1.00
C148   C     0.38733   0.32170   0.92412   0.00000  Uiso   1.00
C149   C     0.42565   0.26050   0.92288   0.00000  Uiso   1.00
C150   C     0.42529   0.17209   0.97432   0.00000  Uiso   1.00
C151   C     0.44157   0.02091   0.04611   0.00000  Uiso   1.00
C152   C     0.31175   0.37349   0.96649   0.00000  Uiso   1.00
C153   C     0.30077   0.37942   0.86975   0.00000  Uiso   1.00
C154   C     0.25897   0.36161   0.83273   0.00000  Uiso   1.00
C155   C     0.25584   0.37090   0.74297   0.00000  Uiso   1.00
C156   C     0.33161   0.47851   0.99066   0.00000  Uiso   1.00
C157   C     0.31574   0.54400   0.05531   0.00000  Uiso   1.00
C158   C     0.33857   0.63669   0.06735   0.00000  Uiso   1.00
C159   C     0.34999   0.29555   0.97495   0.00000  Uiso   1.00
C160   C     0.34957   0.20723   0.02640   0.00000  Uiso   1.00
C161   C     0.38788   0.14590   0.02523   0.00000  Uiso   1.00
H162   H     0.40959   0.44200   0.83336   0.00000  Uiso   1.00
H163   H     0.36395   0.43513   0.68990   0.00000  Uiso   1.00
H164   H     0.42072   0.61748   0.91245   0.00000  Uiso   1.00
H165   H     0.45454   0.28076   0.88354   0.00000  Uiso   1.00
H166   H     0.29689   0.41602   0.55326   0.00000  Uiso   1.00
H167   H     0.41658   0.80050   0.02255   0.00000  Uiso   1.00
H168   H     0.48792   0.09046   0.96160   0.00000  Uiso   1.00
H169   H     0.28268   0.35313   0.00606   0.00000  Uiso   1.00
H170   H     0.23008   0.34138   0.87208   0.00000  Uiso   1.00
H171   H     0.28684   0.52374   0.09463   0.00000  Uiso   1.00
H172   H     0.32067   0.18701   0.06573   0.00000  Uiso   1.00
H173   H     0.18823   0.33993   0.70113   0.00000  Uiso   1.00
H174   H     0.30793   0.72441   0.17042   0.00000  Uiso   1.00
H175   H     0.37926   0.01437   0.10946   0.00000  Uiso   1.00
O176   O     0.21025   0.37188   0.53594   0.00000  Uiso   1.00
O177   O     0.36729   0.87629   0.15164   0.00000  Uiso   1.00
O178   O     0.46087   0.94474   0.07167   0.00000  Uiso   1.00
N179   N     0.27854   0.39970   0.60645   0.00000  Uiso   1.00
N180   N     0.39044   0.75918   0.04519   0.00000  Uiso   1.00
N181   N     0.45713   0.09536   0.98823   0.00000  Uiso   1.00
N182   N     0.22007   0.35876   0.68601   0.00000  Uiso   1.00
N183   N     0.33197   0.71823   0.12476   0.00000  Uiso   1.00
N184   N     0.39867   0.05442   0.06779   0.00000  Uiso   1.00
C185   C     0.61949   0.92164   0.37292   0.00000  Uiso   1.00
C186   C     0.66188   0.90557   0.31892   0.00000  Uiso   1.00
C187   C     0.66495   0.91488   0.22921   0.00000  Uiso   1.00
C188   C     0.70675   0.89710   0.19206   0.00000  Uiso   1.00
C189   C     0.76689   0.87618   0.10049   0.00000  Uiso   1.00
C190   C     0.63104   0.00466   0.43984   0.00000  Uiso   1.00
C191   C     0.60819   0.09727   0.45179   0.00000  Uiso   1.00
C192   C     0.62402   0.16289   0.51643   0.00000  Uiso   1.00
C193   C     0.63627   0.29577   0.61263   0.00000  Uiso   1.00
C194   C     0.61267   0.82170   0.42412   0.00000  Uiso   1.00
C195   C     0.57435   0.76050   0.42288   0.00000  Uiso   1.00
C196   C     0.57471   0.67209   0.47432   0.00000  Uiso   1.00
C197   C     0.55843   0.52091   0.54611   0.00000  Uiso   1.00
C198   C     0.68825   0.87349   0.46649   0.00000  Uiso   1.00
C199   C     0.69923   0.87942   0.36975   0.00000  Uiso   1.00
C200   C     0.74103   0.86161   0.33273   0.00000  Uiso   1.00
C201   C     0.74416   0.87090   0.24297   0.00000  Uiso   1.00
C202   C     0.66839   0.97851   0.49066   0.00000  Uiso   1.00
C203   C     0.68426   0.04400   0.55531   0.00000  Uiso   1.00
C204   C     0.66143   0.13669   0.56735   0.00000  Uiso   1.00
C205   C     0.65001   0.79555   0.47495   0.00000  Uiso   1.00
C206   C     0.65043   0.70723   0.52640   0.00000  Uiso   1.00
C207   C     0.61212   0.64590   0.52523   0.00000  Uiso   1.00
H208   H     0.59041   0.94200   0.33336   0.00000  Uiso   1.00
H209   H     0.63605   0.93513   0.18990   0.00000  Uiso   1.00
H210   H     0.57928   0.11748   0.41245   0.00000  Uiso   1.00
H211   H     0.54546   0.78076   0.38354   0.00000  Uiso   1.00
H212   H     0.70311   0.91602   0.05326   0.00000  Uiso   1.00
H213   H     0.58342   0.30050   0.52255   0.00000  Uiso   1.00
H214   H     0.51208   0.59046   0.46160   0.00000  Uiso   1.00
H215   H     0.71732   0.85313   0.50606   0.00000  Uiso   1.00
H216   H     0.76992   0.84138   0.37208   0.00000  Uiso   1.00
H217   H     0.71316   0.02374   0.59463   0.00000  Uiso   1.00
H218   H     0.67933   0.68701   0.56573   0.00000  Uiso   1.00
H219   H     0.81177   0.83993   0.20113   0.00000  Uiso   1.00
H220   H     0.69207   0.22441   0.67042   0.00000  Uiso   1.00
H221   H     0.62074   0.51437   0.60946   0.00000  Uiso   1.00
O222   O     0.78975   0.87188   0.03594   0.00000  Uiso   1.00
O223   O     0.63271   0.37629   0.65164   0.00000  Uiso   1.00
O224   O     0.53913   0.44474   0.57167   0.00000  Uiso   1.00
N225   N     0.72146   0.89970   0.10645   0.00000  Uiso   1.00
N226   N     0.60956   0.25918   0.54519   0.00000  Uiso   1.00
N227   N     0.54287   0.59536   0.48823   0.00000  Uiso   1.00
N228   N     0.77993   0.85876   0.18601   0.00000  Uiso   1.00
N229   N     0.66803   0.21823   0.62476   0.00000  Uiso   1.00
N230   N     0.60133   0.55442   0.56779   0.00000  Uiso   1.00
C231   C     0.88051   0.07836   0.37292   0.00000  Uiso   1.00
C232   C     0.83812   0.09443   0.31892   0.00000  Uiso   1.00
C233   C     0.83505   0.08512   0.22921   0.00000  Uiso   1.00
C234   C     0.79325   0.10290   0.19206   0.00000  Uiso   1.00
C235   C     0.73311   0.12382   0.10049   0.00000  Uiso   1.00
C236   C     0.86896   0.99534   0.43984   0.00000  Uiso   1.00
C237   C     0.89181   0.90273   0.45179   0.00000  Uiso   1.00
C238   C     0.87598   0.83711   0.51643   0.00000  Uiso   1.00
C239   C     0.86373   0.70423   0.61263   0.00000  Uiso   1.00
C240   C     0.88733   0.17830   0.42412   0.00000  Uiso   1.00
C241   C     0.92565   0.23950   0.42288   0.00000  Uiso   1.00
C242   C     0.92529   0.32791   0.47432   0.00000  Uiso   1.00
C243   C     0.94157   0.47909   0.54611   0.00000  Uiso   1.00
C244   C     0.81175   0.12651   0.46649   0.00000  Uiso   1.00
C245   C     0.80077   0.12058   0.36975   0.00000  Uiso   1.00
C246   C     0.75897   0.13839   0.33273   0.00000  Uiso   1.00
C247   C     0.75584   0.12910   0.24297   0.00000  Uiso   1.00
C248   C     0.83161   0.02149   0.49066   0.00000  Uiso   1.00
C249   C     0.81574   0.95600   0.55531   0.00000  Uiso   1.00
C250   C     0.83857   0.86331   0.56735   0.00000  Uiso   1.00
C251   C     0.84999   0.20445   0.47495   0.00000  Uiso   1.00
C252   C     0.84957   0.29277   0.52640   0.00000  Uiso   1.00
C253   C     0.88788   0.35410   0.52523   0.00000  Uiso   1.00
H254   H     0.90959   0.05800   0.33336   0.00000  Uiso   1.00
H255   H     0.86395   0.06487   0.18990   0.00000  Uiso   1.00
H256   H     0.92072   0.88252   0.41245   0.00000  Uiso   1.00
H257   H     0.95454   0.21924   0.38354   0.00000  Uiso   1.00
H258   H     0.79689   0.08398   0.05326   0.00000  Uiso   1.00
H259   H     0.91658   0.69950   0.52255   0.00000  Uiso   1.00
H260   H     0.98792   0.40954   0.46160   0.00000  Uiso   1.00
H261   H     0.78268   0.14687   0.50606   0.00000  Uiso   1.00
H262   H     0.73008   0.15862   0.37208   0.00000  Uiso   1.00
H263   H     0.78684   0.97626   0.59463   0.00000  Uiso   1.00
H264   H     0.82067   0.31299   0.56573   0.00000  Uiso   1.00
H265   H     0.68823   0.16007   0.20113   0.00000  Uiso   1.00
H266   H     0.80793   0.77559   0.67042   0.00000  Uiso   1.00
H267   H     0.87926   0.48563   0.60946   0.00000  Uiso   1.00
O268   O     0.71025   0.12812   0.03594   0.00000  Uiso   1.00
O269   O     0.86729   0.62371   0.65164   0.00000  Uiso   1.00
O270   O     0.96087   0.55526   0.57167   0.00000  Uiso   1.00
N271   N     0.77854   0.10030   0.10645   0.00000  Uiso   1.00
N272   N     0.89044   0.74082   0.54519   0.00000  Uiso   1.00
N273   N     0.95713   0.40464   0.48823   0.00000  Uiso   1.00
N274   N     0.72007   0.14124   0.18601   0.00000  Uiso   1.00
N275   N     0.83197   0.78177   0.62476   0.00000  Uiso   1.00
N276   N     0.89867   0.44558   0.56779   0.00000  Uiso   1.00
C277   C     0.88051   0.42164   0.12708   0.00000  Uiso   1.00
C278   C     0.83812   0.40557   0.18108   0.00000  Uiso   1.00
C279   C     0.83505   0.41488   0.27079   0.00000  Uiso   1.00
C280   C     0.79325   0.39710   0.30794   0.00000  Uiso   1.00
C281   C     0.73311   0.37618   0.39951   0.00000  Uiso   1.00
C282   C     0.86896   0.50466   0.06016   0.00000  Uiso   1.00
C283   C     0.89181   0.59727   0.04821   0.00000  Uiso   1.00
C284   C     0.87598   0.66289   0.98357   0.00000  Uiso   1.00
C285   C     0.86373   0.79577   0.88737   0.00000  Uiso   1.00
C286   C     0.88733   0.32170   0.07588   0.00000  Uiso   1.00
C287   C     0.92565   0.26050   0.07712   0.00000  Uiso   1.00
C288   C     0.92529   0.17209   0.02568   0.00000  Uiso   1.00
C289   C     0.94157   0.02091   0.95389   0.00000  Uiso   1.00
C290   C     0.81175   0.37349   0.03351   0.00000  Uiso   1.00
C291   C     0.80077   0.37942   0.13025   0.00000  Uiso   1.00
C292   C     0.75897   0.36161   0.16727   0.00000  Uiso   1.00
C293   C     0.75584   0.37090   0.25703   0.00000  Uiso   1.00
C294   C     0.83161   0.47851   0.00934   0.00000  Uiso   1.00
C295   C     0.81574   0.54400   0.94469   0.00000  Uiso   1.00
C296   C     0.83857   0.63669   0.93265   0.00000  Uiso   1.00
C297   C     0.84999   0.29555   0.02505   0.00000  Uiso   1.00
C298   C     0.84957   0.20723   0.97360   0.00000  Uiso   1.00
C299   C     0.88788   0.14590   0.97477   0.00000  Uiso   1.00
H300   H     0.90959   0.44200   0.16664   0.00000  Uiso   1.00
H301   H     0.86395   0.43513   0.31010   0.00000  Uiso   1.00
H302   H     0.92072   0.61748   0.08755   0.00000  Uiso   1.00
H303   H     0.95454   0.28076   0.11646   0.00000  Uiso   1.00
H304   H     0.79689   0.41602   0.44674   0.00000  Uiso   1.00
H305   H     0.91658   0.80050   0.97745   0.00000  Uiso   1.00
H306   H     0.98792   0.09046   0.03840   0.00000  Uiso   1.00
H307   H     0.78268   0.35313   0.99394   0.00000  Uiso   1.00
H308   H     0.73008   0.34138   0.12792   0.00000  Uiso   1.00
H309   H     0.78684   0.52374   0.90537   0.00000  Uiso   1.00
H310   H     0.82067   0.18701   0.93427   0.00000  Uiso   1.00
H311   H     0.68823   0.33993   0.29887   0.00000  Uiso   1.00
H312   H     0.80793   0.72441   0.82958   0.00000  Uiso   1.00
H313   H     0.87926   0.01437   0.89054   0.00000  Uiso   1.00
O314   O     0.71025   0.37188   0.46406   0.00000  Uiso   1.00
O315   O     0.86729   0.87629   0.84836   0.00000  Uiso   1.00
O316   O     0.96087   0.94474   0.92833   0.00000  Uiso   1.00
N317   N     0.77854   0.39970   0.39355   0.00000  Uiso   1.00
N318   N     0.89044   0.75918   0.95481   0.00000  Uiso   1.00
N319   N     0.95713   0.09536   0.01177   0.00000  Uiso   1.00
N320   N     0.72007   0.35876   0.31399   0.00000  Uiso   1.00
N321   N     0.83197   0.71823   0.87524   0.00000  Uiso   1.00
N322   N     0.89867   0.05442   0.93221   0.00000  Uiso   1.00
C323   C     0.61949   0.57836   0.12708   0.00000  Uiso   1.00
C324   C     0.66188   0.59443   0.18108   0.00000  Uiso   1.00
C325   C     0.66495   0.58512   0.27079   0.00000  Uiso   1.00
C326   C     0.70675   0.60290   0.30794   0.00000  Uiso   1.00
C327   C     0.76689   0.62382   0.39951   0.00000  Uiso   1.00
C328   C     0.63104   0.49534   0.06016   0.00000  Uiso   1.00
C329   C     0.60819   0.40273   0.04821   0.00000  Uiso   1.00
C330   C     0.62402   0.33711   0.98357   0.00000  Uiso   1.00
C331   C     0.63627   0.20423   0.88737   0.00000  Uiso   1.00
C332   C     0.61267   0.67830   0.07588   0.00000  Uiso   1.00
C333   C     0.57435   0.73950   0.07712   0.00000  Uiso   1.00
C334   C     0.57471   0.82791   0.02568   0.00000  Uiso   1.00
C335   C     0.55843   0.97909   0.95389   0.00000  Uiso   1.00
C336   C     0.68825   0.62651   0.03351   0.00000  Uiso   1.00
C337   C     0.69923   0.62058   0.13025   0.00000  Uiso   1.00
C338   C     0.74103   0.63839   0.16727   0.00000  Uiso   1.00
C339   C     0.74416   0.62910   0.25703   0.00000  Uiso   1.00
C340   C     0.66839   0.52149   0.00934   0.00000  Uiso   1.00
C341   C     0.68426   0.45600   0.94469   0.00000  Uiso   1.00
C342   C     0.66143   0.36331   0.93265   0.00000  Uiso   1.00
C343   C     0.65001   0.70445   0.02505   0.00000  Uiso   1.00
C344   C     0.65043   0.79277   0.97360   0.00000  Uiso   1.00
C345   C     0.61212   0.85410   0.97477   0.00000  Uiso   1.00
H346   H     0.59041   0.55800   0.16664   0.00000  Uiso   1.00
H347   H     0.63605   0.56487   0.31010   0.00000  Uiso   1.00
H348   H     0.57928   0.38252   0.08755   0.00000  Uiso   1.00
H349   H     0.54546   0.71924   0.11646   0.00000  Uiso   1.00
H350   H     0.70311   0.58398   0.44674   0.00000  Uiso   1.00
H351   H     0.58342   0.19950   0.97745   0.00000  Uiso   1.00
H352   H     0.51208   0.90954   0.03840   0.00000  Uiso   1.00
H353   H     0.71732   0.64687   0.99394   0.00000  Uiso   1.00
H354   H     0.76992   0.65862   0.12792   0.00000  Uiso   1.00
H355   H     0.71316   0.47626   0.90537   0.00000  Uiso   1.00
H356   H     0.67933   0.81299   0.93427   0.00000  Uiso   1.00
H357   H     0.81177   0.66007   0.29887   0.00000  Uiso   1.00
H358   H     0.69207   0.27559   0.82958   0.00000  Uiso   1.00
H359   H     0.62074   0.98563   0.89054   0.00000  Uiso   1.00
O360   O     0.78975   0.62812   0.46406   0.00000  Uiso   1.00
O361   O     0.63271   0.12371   0.84836   0.00000  Uiso   1.00
O362   O     0.53913   0.05526   0.92833   0.00000  Uiso   1.00
N363   N     0.72146   0.60030   0.39355   0.00000  Uiso   1.00
N364   N     0.60956   0.24082   0.95481   0.00000  Uiso   1.00
N365   N     0.54287   0.90464   0.01177   0.00000  Uiso   1.00
N366   N     0.77993   0.64124   0.31399   0.00000  Uiso   1.00
N367   N     0.66803   0.28177   0.87524   0.00000  Uiso   1.00
N368   N     0.60133   0.94558   0.93221   0.00000  Uiso   1.00
