data_job_03142
_audit_creation_date              2018-12-19
_audit_creation_method            'Materials Studio'
_symmetry_space_group_name_H-M    'P1'
_symmetry_Int_Tables_number       1
_symmetry_cell_setting            triclinic
loop_
_symmetry_equiv_pos_as_xyz
  x,y,z
_cell_length_a                    19.4705
_cell_length_b                    10.5092
_cell_length_c                    17.0124
_cell_angle_alpha                 90.0000
_cell_angle_beta                  108.2890
_cell_angle_gamma                 90.0000
loop_
_atom_site_label
_atom_site_type_symbol
_atom_site_fract_x
_atom_site_fract_y
_atom_site_fract_z
_atom_site_U_iso_or_equiv
_atom_site_adp_type
_atom_site_occupancy
C1     C     0.83947   0.85140   0.04909   0.00000  Uiso   1.00
C2     C     0.89919   0.75285   0.08131   0.00000  Uiso   1.00
C3     C     0.95772   0.76356   0.15298   0.00000  Uiso   1.00
C4     C     0.00645   0.66307   0.17174   0.00000  Uiso   1.00
C5     C     0.10066   0.52639   0.22953   0.00000  Uiso   1.00
C6     C     0.83864   0.88384   0.96143   0.00000  Uiso   1.00
C7     C     0.84623   0.00469   0.93231   0.00000  Uiso   1.00
C8     C     0.84397   0.01445   0.85014   0.00000  Uiso   1.00
C9     C     0.84411   0.08114   0.72179   0.00000  Uiso   1.00
C10    C     0.76857   0.78216   0.04001   0.00000  Uiso   1.00
C11    C     0.71724   0.81753   0.07695   0.00000  Uiso   1.00
C12    C     0.65598   0.74171   0.06094   0.00000  Uiso   1.00
C13    C     0.54732   0.65053   0.05460   0.00000  Uiso   1.00
C14    C     0.82194   0.65388   0.95495   0.00000  Uiso   1.00
C15    C     0.88968   0.64557   0.03017   0.00000  Uiso   1.00
C16    C     0.93833   0.54502   0.04883   0.00000  Uiso   1.00
C17    C     0.99692   0.55558   0.12052   0.00000  Uiso   1.00
C18    C     0.82912   0.77656   0.91029   0.00000  Uiso   1.00
C19    C     0.82684   0.78614   0.82815   0.00000  Uiso   1.00
C20    C     0.83444   0.90697   0.79892   0.00000  Uiso   1.00
C21    C     0.75905   0.67487   0.98888   0.00000  Uiso   1.00
C22    C     0.69785   0.59898   0.97280   0.00000  Uiso   1.00
C23    C     0.64644   0.63423   0.00971   0.00000  Uiso   1.00
H24    H     0.84688   0.93494   0.08889   0.00000  Uiso   1.00
H25    H     0.96507   0.84662   0.19254   0.00000  Uiso   1.00
H26    H     0.85359   0.08769   0.97189   0.00000  Uiso   1.00
H27    H     0.72462   0.90056   0.11652   0.00000  Uiso   1.00
H28    H     0.09192   0.70140   0.28488   0.00000  Uiso   1.00
H29    H     0.85684   0.20974   0.81963   0.00000  Uiso   1.00
H30    H     0.58488   0.81514   0.12460   0.00000  Uiso   1.00
H31    H     0.81453   0.57035   0.91514   0.00000  Uiso   1.00
H32    H     0.93095   0.46201   0.00925   0.00000  Uiso   1.00
H33    H     0.81947   0.70310   0.78860   0.00000  Uiso   1.00
H34    H     0.69051   0.51597   0.93323   0.00000  Uiso   1.00
H35    H     0.06424   0.38924   0.13611   0.00000  Uiso   1.00
H36    H     0.82915   0.89759   0.67086   0.00000  Uiso   1.00
H37    H     0.55719   0.50298   0.97583   0.00000  Uiso   1.00
O38    O     0.15526   0.48065   0.27552   0.00000  Uiso   1.00
O39    O     0.84682   0.14758   0.66513   0.00000  Uiso   1.00
O40    O     0.49003   0.62987   0.06525   0.00000  Uiso   1.00
N41    N     0.06942   0.64279   0.23696   0.00000  Uiso   1.00
N42    N     0.84964   0.11805   0.80198   0.00000  Uiso   1.00
N43    N     0.59538   0.74916   0.08708   0.00000  Uiso   1.00
N44    N     0.05452   0.47482   0.15691   0.00000  Uiso   1.00
N45    N     0.83475   0.95008   0.72193   0.00000  Uiso   1.00
N46    N     0.58048   0.58119   0.00703   0.00000  Uiso   1.00
C47    C     0.16053   0.35140   0.45091   0.00000  Uiso   1.00
C48    C     0.10081   0.25285   0.41869   0.00000  Uiso   1.00
C49    C     0.04228   0.26356   0.34702   0.00000  Uiso   1.00
C50    C     0.99355   0.16307   0.32826   0.00000  Uiso   1.00
C51    C     0.89934   0.02639   0.27047   0.00000  Uiso   1.00
C52    C     0.16136   0.38384   0.53857   0.00000  Uiso   1.00
C53    C     0.15377   0.50469   0.56769   0.00000  Uiso   1.00
C54    C     0.15603   0.51445   0.64986   0.00000  Uiso   1.00
C55    C     0.15589   0.58114   0.77821   0.00000  Uiso   1.00
C56    C     0.23143   0.28216   0.45999   0.00000  Uiso   1.00
C57    C     0.28276   0.31753   0.42305   0.00000  Uiso   1.00
C58    C     0.34402   0.24171   0.43906   0.00000  Uiso   1.00
C59    C     0.45268   0.15053   0.44540   0.00000  Uiso   1.00
C60    C     0.17806   0.15388   0.54505   0.00000  Uiso   1.00
C61    C     0.11032   0.14557   0.46983   0.00000  Uiso   1.00
C62    C     0.06167   0.04502   0.45117   0.00000  Uiso   1.00
C63    C     0.00308   0.05558   0.37948   0.00000  Uiso   1.00
C64    C     0.17088   0.27656   0.58971   0.00000  Uiso   1.00
C65    C     0.17316   0.28614   0.67185   0.00000  Uiso   1.00
C66    C     0.16556   0.40697   0.70108   0.00000  Uiso   1.00
C67    C     0.24095   0.17487   0.51112   0.00000  Uiso   1.00
C68    C     0.30215   0.09898   0.52720   0.00000  Uiso   1.00
C69    C     0.35356   0.13423   0.49029   0.00000  Uiso   1.00
H70    H     0.15312   0.43494   0.41111   0.00000  Uiso   1.00
H71    H     0.03493   0.34662   0.30746   0.00000  Uiso   1.00
H72    H     0.14641   0.58769   0.52811   0.00000  Uiso   1.00
H73    H     0.27538   0.40056   0.38348   0.00000  Uiso   1.00
H74    H     0.90808   0.20140   0.21512   0.00000  Uiso   1.00
H75    H     0.14316   0.70974   0.68037   0.00000  Uiso   1.00
H76    H     0.41512   0.31514   0.37540   0.00000  Uiso   1.00
H77    H     0.18547   0.07035   0.58486   0.00000  Uiso   1.00
H78    H     0.06905   0.96201   0.49075   0.00000  Uiso   1.00
H79    H     0.18053   0.20310   0.71140   0.00000  Uiso   1.00
H80    H     0.30949   0.01597   0.56677   0.00000  Uiso   1.00
H81    H     0.93576   0.88924   0.36389   0.00000  Uiso   1.00
H82    H     0.17085   0.39759   0.82914   0.00000  Uiso   1.00
H83    H     0.44281   0.00298   0.52417   0.00000  Uiso   1.00
O84    O     0.84474   0.98065   0.22448   0.00000  Uiso   1.00
O85    O     0.15318   0.64758   0.83487   0.00000  Uiso   1.00
O86    O     0.50997   0.12987   0.43475   0.00000  Uiso   1.00
N87    N     0.93058   0.14279   0.26304   0.00000  Uiso   1.00
N88    N     0.15036   0.61805   0.69802   0.00000  Uiso   1.00
N89    N     0.40462   0.24916   0.41292   0.00000  Uiso   1.00
N90    N     0.94548   0.97482   0.34309   0.00000  Uiso   1.00
N91    N     0.16525   0.45008   0.77807   0.00000  Uiso   1.00
N92    N     0.41952   0.08119   0.49297   0.00000  Uiso   1.00
C93    C     0.16053   0.14860   0.95091   0.00000  Uiso   1.00
C94    C     0.10081   0.24715   0.91869   0.00000  Uiso   1.00
C95    C     0.04228   0.23644   0.84702   0.00000  Uiso   1.00
C96    C     0.99355   0.33693   0.82826   0.00000  Uiso   1.00
C97    C     0.89934   0.47361   0.77047   0.00000  Uiso   1.00
C98    C     0.16136   0.11616   0.03857   0.00000  Uiso   1.00
C99    C     0.15377   0.99531   0.06769   0.00000  Uiso   1.00
C100   C     0.15603   0.98555   0.14986   0.00000  Uiso   1.00
C101   C     0.15589   0.91886   0.27821   0.00000  Uiso   1.00
C102   C     0.23143   0.21784   0.95999   0.00000  Uiso   1.00
C103   C     0.28276   0.18247   0.92305   0.00000  Uiso   1.00
C104   C     0.34402   0.25829   0.93906   0.00000  Uiso   1.00
C105   C     0.45268   0.34947   0.94540   0.00000  Uiso   1.00
C106   C     0.17806   0.34612   0.04505   0.00000  Uiso   1.00
C107   C     0.11032   0.35443   0.96983   0.00000  Uiso   1.00
C108   C     0.06167   0.45498   0.95117   0.00000  Uiso   1.00
C109   C     0.00308   0.44442   0.87948   0.00000  Uiso   1.00
C110   C     0.17088   0.22344   0.08971   0.00000  Uiso   1.00
C111   C     0.17316   0.21386   0.17185   0.00000  Uiso   1.00
C112   C     0.16556   0.09303   0.20108   0.00000  Uiso   1.00
C113   C     0.24095   0.32513   0.01112   0.00000  Uiso   1.00
C114   C     0.30215   0.40102   0.02720   0.00000  Uiso   1.00
C115   C     0.35356   0.36577   0.99029   0.00000  Uiso   1.00
H116   H     0.15312   0.06506   0.91111   0.00000  Uiso   1.00
H117   H     0.03493   0.15338   0.80746   0.00000  Uiso   1.00
H118   H     0.14641   0.91231   0.02811   0.00000  Uiso   1.00
H119   H     0.27538   0.09944   0.88348   0.00000  Uiso   1.00
H120   H     0.90808   0.29860   0.71512   0.00000  Uiso   1.00
H121   H     0.14316   0.79026   0.18037   0.00000  Uiso   1.00
H122   H     0.41512   0.18486   0.87540   0.00000  Uiso   1.00
H123   H     0.18547   0.42965   0.08486   0.00000  Uiso   1.00
H124   H     0.06905   0.53799   0.99075   0.00000  Uiso   1.00
H125   H     0.18053   0.29690   0.21140   0.00000  Uiso   1.00
H126   H     0.30949   0.48403   0.06677   0.00000  Uiso   1.00
H127   H     0.93576   0.61076   0.86389   0.00000  Uiso   1.00
H128   H     0.17085   0.10241   0.32914   0.00000  Uiso   1.00
H129   H     0.44281   0.49702   0.02417   0.00000  Uiso   1.00
O130   O     0.84474   0.51935   0.72448   0.00000  Uiso   1.00
O131   O     0.15318   0.85242   0.33487   0.00000  Uiso   1.00
O132   O     0.50997   0.37013   0.93475   0.00000  Uiso   1.00
N133   N     0.93058   0.35721   0.76304   0.00000  Uiso   1.00
N134   N     0.15036   0.88195   0.19802   0.00000  Uiso   1.00
N135   N     0.40462   0.25084   0.91292   0.00000  Uiso   1.00
N136   N     0.94548   0.52518   0.84309   0.00000  Uiso   1.00
N137   N     0.16525   0.04992   0.27807   0.00000  Uiso   1.00
N138   N     0.41952   0.41881   0.99297   0.00000  Uiso   1.00
C139   C     0.83947   0.64860   0.54909   0.00000  Uiso   1.00
C140   C     0.89919   0.74715   0.58131   0.00000  Uiso   1.00
C141   C     0.95772   0.73644   0.65298   0.00000  Uiso   1.00
C142   C     0.00645   0.83693   0.67174   0.00000  Uiso   1.00
C143   C     0.10066   0.97361   0.72953   0.00000  Uiso   1.00
C144   C     0.83864   0.61616   0.46143   0.00000  Uiso   1.00
C145   C     0.84623   0.49531   0.43231   0.00000  Uiso   1.00
C146   C     0.84397   0.48555   0.35014   0.00000  Uiso   1.00
C147   C     0.84411   0.41886   0.22179   0.00000  Uiso   1.00
C148   C     0.76857   0.71784   0.54001   0.00000  Uiso   1.00
C149   C     0.71724   0.68247   0.57695   0.00000  Uiso   1.00
C150   C     0.65598   0.75829   0.56094   0.00000  Uiso   1.00
C151   C     0.54732   0.84947   0.55460   0.00000  Uiso   1.00
C152   C     0.82194   0.84612   0.45495   0.00000  Uiso   1.00
C153   C     0.88968   0.85443   0.53017   0.00000  Uiso   1.00
C154   C     0.93833   0.95498   0.54883   0.00000  Uiso   1.00
C155   C     0.99692   0.94442   0.62052   0.00000  Uiso   1.00
C156   C     0.82912   0.72344   0.41029   0.00000  Uiso   1.00
C157   C     0.82684   0.71386   0.32815   0.00000  Uiso   1.00
C158   C     0.83444   0.59303   0.29892   0.00000  Uiso   1.00
C159   C     0.75905   0.82513   0.48888   0.00000  Uiso   1.00
C160   C     0.69785   0.90102   0.47280   0.00000  Uiso   1.00
C161   C     0.64644   0.86577   0.50971   0.00000  Uiso   1.00
H162   H     0.84688   0.56506   0.58889   0.00000  Uiso   1.00
H163   H     0.96507   0.65338   0.69254   0.00000  Uiso   1.00
H164   H     0.85359   0.41231   0.47189   0.00000  Uiso   1.00
H165   H     0.72462   0.59944   0.61652   0.00000  Uiso   1.00
H166   H     0.09192   0.79860   0.78488   0.00000  Uiso   1.00
H167   H     0.85684   0.29026   0.31963   0.00000  Uiso   1.00
H168   H     0.58488   0.68486   0.62460   0.00000  Uiso   1.00
H169   H     0.81453   0.92965   0.41514   0.00000  Uiso   1.00
H170   H     0.93095   0.03799   0.50925   0.00000  Uiso   1.00
H171   H     0.81947   0.79690   0.28860   0.00000  Uiso   1.00
H172   H     0.69051   0.98403   0.43323   0.00000  Uiso   1.00
H173   H     0.06424   0.11076   0.63611   0.00000  Uiso   1.00
H174   H     0.82915   0.60241   0.17086   0.00000  Uiso   1.00
H175   H     0.55719   0.99702   0.47583   0.00000  Uiso   1.00
O176   O     0.15526   0.01935   0.77552   0.00000  Uiso   1.00
O177   O     0.84682   0.35242   0.16513   0.00000  Uiso   1.00
O178   O     0.49003   0.87013   0.56525   0.00000  Uiso   1.00
N179   N     0.06942   0.85721   0.73696   0.00000  Uiso   1.00
N180   N     0.84964   0.38195   0.30198   0.00000  Uiso   1.00
N181   N     0.59538   0.75084   0.58708   0.00000  Uiso   1.00
N182   N     0.05452   0.02518   0.65691   0.00000  Uiso   1.00
N183   N     0.83475   0.54992   0.22193   0.00000  Uiso   1.00
N184   N     0.58048   0.91881   0.50703   0.00000  Uiso   1.00
