data_job_06974
_audit_creation_date              2018-12-19
_audit_creation_method            'Materials Studio'
_symmetry_space_group_name_H-M    'P1'
_symmetry_Int_Tables_number       1
_symmetry_cell_setting            triclinic
loop_
_symmetry_equiv_pos_as_xyz
  x,y,z
_cell_length_a                    21.1205
_cell_length_b                    21.3679
_cell_length_c                    23.8071
_cell_angle_alpha                 64.4006
_cell_angle_beta                  65.4117
_cell_angle_gamma                 62.0185
loop_
_atom_site_label
_atom_site_type_symbol
_atom_site_fract_x
_atom_site_fract_y
_atom_site_fract_z
_atom_site_U_iso_or_equiv
_atom_site_adp_type
_atom_site_occupancy
C1     C     0.14750   0.34058   0.86267   0.00000  Uiso   1.00
C2     C     0.23127   0.31653   0.85034   0.00000  Uiso   1.00
C3     C     0.28513   0.29680   0.79633   0.00000  Uiso   1.00
C4     C     0.35876   0.27645   0.79414   0.00000  Uiso   1.00
C5     C     0.48594   0.23916   0.76740   0.00000  Uiso   1.00
C6     C     0.12157   0.28790   0.92756   0.00000  Uiso   1.00
C7     C     0.08319   0.24411   0.93848   0.00000  Uiso   1.00
C8     C     0.06447   0.19966   0.00130   0.00000  Uiso   1.00
C9     C     0.02130   0.11796   0.09446   0.00000  Uiso   1.00
C10    C     0.11364   0.41657   0.87325   0.00000  Uiso   1.00
C11    C     0.06856   0.48097   0.83852   0.00000  Uiso   1.00
C12    C     0.04315   0.54485   0.85561   0.00000  Uiso   1.00
C13    C     0.98765   0.66293   0.86444   0.00000  Uiso   1.00
C14    C     0.18249   0.33951   0.95480   0.00000  Uiso   1.00
C15    C     0.25027   0.31594   0.90039   0.00000  Uiso   1.00
C16    C     0.32384   0.29562   0.89827   0.00000  Uiso   1.00
C17    C     0.37780   0.27587   0.84427   0.00000  Uiso   1.00
C18    C     0.14057   0.28731   0.97761   0.00000  Uiso   1.00
C19    C     0.12190   0.24292   0.04042   0.00000  Uiso   1.00
C20    C     0.08351   0.19908   0.05144   0.00000  Uiso   1.00
C21    C     0.13264   0.41599   0.92329   0.00000  Uiso   1.00
C22    C     0.10728   0.47978   0.94045   0.00000  Uiso   1.00
C23    C     0.06218   0.54426   0.90575   0.00000  Uiso   1.00
H24    H     0.13270   0.34103   0.82371   0.00000  Uiso   1.00
H25    H     0.27040   0.29726   0.75762   0.00000  Uiso   1.00
H26    H     0.06849   0.24458   0.89975   0.00000  Uiso   1.00
H27    H     0.05387   0.48140   0.79979   0.00000  Uiso   1.00
H28    H     0.43144   0.24844   0.70642   0.00000  Uiso   1.00
H29    H     0.00568   0.13739   0.00611   0.00000  Uiso   1.00
H30    H     0.97485   0.63677   0.79534   0.00000  Uiso   1.00
H31    H     0.19728   0.33905   0.99377   0.00000  Uiso   1.00
H32    H     0.33853   0.29517   0.93701   0.00000  Uiso   1.00
H33    H     0.13661   0.24249   0.07914   0.00000  Uiso   1.00
H34    H     0.12200   0.47931   0.97918   0.00000  Uiso   1.00
H35    H     0.48674   0.24674   0.85203   0.00000  Uiso   1.00
H36    H     0.06097   0.13569   0.15172   0.00000  Uiso   1.00
H37    H     0.03015   0.63507   0.94094   0.00000  Uiso   1.00
O38    O     0.55084   0.21874   0.73883   0.00000  Uiso   1.00
O39    O     0.99224   0.07305   0.13201   0.00000  Uiso   1.00
O40    O     0.95180   0.72822   0.85548   0.00000  Uiso   1.00
N41    N     0.42507   0.25408   0.74847   0.00000  Uiso   1.00
N42    N     0.02702   0.15024   0.02867   0.00000  Uiso   1.00
N43    N     0.99818   0.61711   0.83162   0.00000  Uiso   1.00
N44    N     0.45483   0.25317   0.82682   0.00000  Uiso   1.00
N45    N     0.05677   0.14933   0.10701   0.00000  Uiso   1.00
N46    N     0.02793   0.61620   0.90997   0.00000  Uiso   1.00
C47    C     0.34039   0.64768   0.87926   0.00000  Uiso   1.00
C48    C     0.32016   0.60577   0.85508   0.00000  Uiso   1.00
C49    C     0.30505   0.63057   0.79609   0.00000  Uiso   1.00
C50    C     0.28765   0.58403   0.78298   0.00000  Uiso   1.00
C51    C     0.25653   0.52944   0.73870   0.00000  Uiso   1.00
C52    C     0.28346   0.65441   0.94393   0.00000  Uiso   1.00
C53    C     0.23749   0.72011   0.95965   0.00000  Uiso   1.00
C54    C     0.18920   0.71453   0.02134   0.00000  Uiso   1.00
C55    C     0.10114   0.73546   0.11502   0.00000  Uiso   1.00
C56    C     0.41479   0.59601   0.89471   0.00000  Uiso   1.00
C57    C     0.47925   0.61260   0.86905   0.00000  Uiso   1.00
C58    C     0.54152   0.55785   0.88932   0.00000  Uiso   1.00
C59    C     0.65737   0.48809   0.90657   0.00000  Uiso   1.00
C60    C     0.33636   0.52094   0.96087   0.00000  Uiso   1.00
C61    C     0.31797   0.53693   0.89941   0.00000  Uiso   1.00
C62    C     0.30060   0.49035   0.88638   0.00000  Uiso   1.00
C63    C     0.28546   0.51507   0.82738   0.00000  Uiso   1.00
C64    C     0.28127   0.58558   0.98826   0.00000  Uiso   1.00
C65    C     0.23304   0.57989   0.04994   0.00000  Uiso   1.00
C66    C     0.18701   0.64557   0.06575   0.00000  Uiso   1.00
C67    C     0.41260   0.52717   0.93903   0.00000  Uiso   1.00
C68    C     0.47479   0.47238   0.95934   0.00000  Uiso   1.00
C69    C     0.53933   0.48889   0.93372   0.00000  Uiso   1.00
H70    H     0.34209   0.70127   0.84476   0.00000  Uiso   1.00
H71    H     0.30674   0.68385   0.76180   0.00000  Uiso   1.00
H72    H     0.23920   0.77338   0.92534   0.00000  Uiso   1.00
H73    H     0.48092   0.66588   0.83475   0.00000  Uiso   1.00
H74    H     0.26656   0.63418   0.68939   0.00000  Uiso   1.00
H75    H     0.12417   0.82295   0.03423   0.00000  Uiso   1.00
H76    H     0.63387   0.59628   0.84321   0.00000  Uiso   1.00
H77    H     0.33466   0.46735   0.99538   0.00000  Uiso   1.00
H78    H     0.29891   0.43708   0.92069   0.00000  Uiso   1.00
H79    H     0.23136   0.52661   0.08423   0.00000  Uiso   1.00
H80    H     0.47308   0.41912   0.99364   0.00000  Uiso   1.00
H81    H     0.26020   0.43389   0.81835   0.00000  Uiso   1.00
H82    H     0.11780   0.62267   0.16319   0.00000  Uiso   1.00
H83    H     0.62751   0.39600   0.97217   0.00000  Uiso   1.00
O84    O     0.23997   0.51835   0.70203   0.00000  Uiso   1.00
O85    O     0.05316   0.76602   0.15445   0.00000  Uiso   1.00
O86    O     0.72188   0.46863   0.90383   0.00000  Uiso   1.00
N87    N     0.26998   0.59119   0.72999   0.00000  Uiso   1.00
N88    N     0.13684   0.76768   0.05239   0.00000  Uiso   1.00
N89    N     0.61337   0.55577   0.87381   0.00000  Uiso   1.00
N90    N     0.26656   0.48342   0.79938   0.00000  Uiso   1.00
N91    N     0.13342   0.65991   0.12178   0.00000  Uiso   1.00
N92    N     0.60995   0.44800   0.94321   0.00000  Uiso   1.00
C93    C     0.65047   0.11058   0.86689   0.00000  Uiso   1.00
C94    C     0.61851   0.19339   0.85941   0.00000  Uiso   1.00
C95    C     0.63816   0.24789   0.80443   0.00000  Uiso   1.00
C96    C     0.60254   0.32044   0.80727   0.00000  Uiso   1.00
C97    C     0.56105   0.44639   0.78717   0.00000  Uiso   1.00
C98    C     0.68153   0.07239   0.92561   0.00000  Uiso   1.00
C99    C     0.75417   0.02515   0.92629   0.00000  Uiso   1.00
C100   C     0.77160   0.99584   0.98485   0.00000  Uiso   1.00
C101   C     0.82795   0.93389   0.06753   0.00000  Uiso   1.00
C102   C     0.58408   0.08783   0.88611   0.00000  Uiso   1.00
C103   C     0.57479   0.05355   0.85358   0.00000  Uiso   1.00
C104   C     0.51017   0.03722   0.87890   0.00000  Uiso   1.00
C105   C     0.41521   0.99924   0.90025   0.00000  Uiso   1.00
C106   C     0.55227   0.14251   0.96969   0.00000  Uiso   1.00
C107   C     0.56517   0.21073   0.91525   0.00000  Uiso   1.00
C108   C     0.52951   0.28322   0.91817   0.00000  Uiso   1.00
C109   C     0.54910   0.33782   0.86320   0.00000  Uiso   1.00
C110   C     0.62820   0.08974   0.98144   0.00000  Uiso   1.00
C111   C     0.64552   0.06048   0.04002   0.00000  Uiso   1.00
C112   C     0.71817   0.01322   0.04079   0.00000  Uiso   1.00
C113   C     0.53074   0.10518   0.94194   0.00000  Uiso   1.00
C114   C     0.46614   0.08889   0.96732   0.00000  Uiso   1.00
C115   C     0.45674   0.05460   0.93484   0.00000  Uiso   1.00
H116   H     0.69200   0.09707   0.82343   0.00000  Uiso   1.00
H117   H     0.67944   0.23445   0.76123   0.00000  Uiso   1.00
H118   H     0.79543   0.01174   0.88307   0.00000  Uiso   1.00
H119   H     0.61608   0.04014   0.81038   0.00000  Uiso   1.00
H120   H     0.64202   0.39440   0.71691   0.00000  Uiso   1.00
H121   H     0.88659   0.92478   0.97382   0.00000  Uiso   1.00
H122   H     0.50837   0.98467   0.82053   0.00000  Uiso   1.00
H123   H     0.51074   0.15601   0.01316   0.00000  Uiso   1.00
H124   H     0.48823   0.29663   0.96138   0.00000  Uiso   1.00
H125   H     0.60423   0.07391   0.08322   0.00000  Uiso   1.00
H126   H     0.42487   0.10232   0.01053   0.00000  Uiso   1.00
H127   H     0.48683   0.44486   0.87936   0.00000  Uiso   1.00
H128   H     0.73140   0.97525   0.13627   0.00000  Uiso   1.00
H129   H     0.35318   0.03514   0.98298   0.00000  Uiso   1.00
O130   O     0.55290   0.51106   0.76066   0.00000  Uiso   1.00
O131   O     0.87377   0.89494   0.09771   0.00000  Uiso   1.00
O132   O     0.37756   0.97351   0.89660   0.00000  Uiso   1.00
N133   N     0.60857   0.38698   0.76225   0.00000  Uiso   1.00
N134   N     0.83723   0.94793   0.00244   0.00000  Uiso   1.00
N135   N     0.48364   0.00390   0.85914   0.00000  Uiso   1.00
N136   N     0.52506   0.41413   0.84966   0.00000  Uiso   1.00
N137   N     0.75373   0.97508   0.08985   0.00000  Uiso   1.00
N138   N     0.40014   0.03106   0.94655   0.00000  Uiso   1.00
C139   C     0.64260   0.08153   0.36286   0.00000  Uiso   1.00
C140   C     0.72589   0.03793   0.35318   0.00000  Uiso   1.00
C141   C     0.78179   0.05777   0.30046   0.00000  Uiso   1.00
C142   C     0.85455   0.01048   0.30068   0.00000  Uiso   1.00
C143   C     0.98140   0.95265   0.27788   0.00000  Uiso   1.00
C144   C     0.61453   0.09692   0.42754   0.00000  Uiso   1.00
C145   C     0.57680   0.16636   0.43733   0.00000  Uiso   1.00
C146   C     0.55582   0.16873   0.50015   0.00000  Uiso   1.00
C147   C     0.50975   0.20248   0.59280   0.00000  Uiso   1.00
C148   C     0.60782   0.02800   0.37238   0.00000  Uiso   1.00
C149   C     0.56443   0.03951   0.33581   0.00000  Uiso   1.00
C150   C     0.53778   0.98385   0.35219   0.00000  Uiso   1.00
C151   C     0.48129   0.91060   0.35920   0.00000  Uiso   1.00
C152   C     0.67241   0.96224   0.45700   0.00000  Uiso   1.00
C153   C     0.74207   0.97314   0.40432   0.00000  Uiso   1.00
C154   C     0.81477   0.92580   0.40461   0.00000  Uiso   1.00
C155   C     0.87077   0.94557   0.35190   0.00000  Uiso   1.00
C156   C     0.63072   0.03213   0.47867   0.00000  Uiso   1.00
C157   C     0.60979   0.03439   0.54148   0.00000  Uiso   1.00
C158   C     0.57204   0.10382   0.55137   0.00000  Uiso   1.00
C159   C     0.62401   0.96321   0.42351   0.00000  Uiso   1.00
C160   C     0.59742   0.90753   0.43995   0.00000  Uiso   1.00
C161   C     0.55400   0.91894   0.40341   0.00000  Uiso   1.00
H162   H     0.63000   0.13197   0.32306   0.00000  Uiso   1.00
H163   H     0.76923   0.10792   0.26090   0.00000  Uiso   1.00
H164   H     0.56428   0.21649   0.39776   0.00000  Uiso   1.00
H165   H     0.55191   0.08965   0.29625   0.00000  Uiso   1.00
H166   H     0.93075   0.05270   0.21455   0.00000  Uiso   1.00
H167   H     0.49856   0.28162   0.50312   0.00000  Uiso   1.00
H168   H     0.47248   0.01416   0.28906   0.00000  Uiso   1.00
H169   H     0.68502   0.91180   0.49681   0.00000  Uiso   1.00
H170   H     0.82728   0.87566   0.44418   0.00000  Uiso   1.00
H171   H     0.62232   0.98424   0.58104   0.00000  Uiso   1.00
H172   H     0.60996   0.85740   0.47952   0.00000  Uiso   1.00
H173   H     0.97786   0.86419   0.36331   0.00000  Uiso   1.00
H174   H     0.54567   0.09312   0.65188   0.00000  Uiso   1.00
H175   H     0.51960   0.82565   0.43782   0.00000  Uiso   1.00
O176   O     0.04690   0.93866   0.25119   0.00000  Uiso   1.00
O177   O     0.47987   0.23900   0.62978   0.00000  Uiso   1.00
O178   O     0.44567   0.88809   0.34893   0.00000  Uiso   1.00
N179   N     0.92231   0.01328   0.25678   0.00000  Uiso   1.00
N180   N     0.51825   0.22732   0.52657   0.00000  Uiso   1.00
N181   N     0.49386   0.97727   0.32645   0.00000  Uiso   1.00
N182   N     0.94766   0.91185   0.33682   0.00000  Uiso   1.00
N183   N     0.54360   0.12588   0.60661   0.00000  Uiso   1.00
N184   N     0.51921   0.87583   0.40650   0.00000  Uiso   1.00
C185   C     0.78817   0.57237   0.39479   0.00000  Uiso   1.00
C186   C     0.77411   0.65529   0.37051   0.00000  Uiso   1.00
C187   C     0.76021   0.70308   0.31148   0.00000  Uiso   1.00
C188   C     0.74875   0.77700   0.29828   0.00000  Uiso   1.00
C189   C     0.72653   0.90193   0.25386   0.00000  Uiso   1.00
C190   C     0.73021   0.55948   0.45943   0.00000  Uiso   1.00
C191   C     0.67939   0.52671   0.47517   0.00000  Uiso   1.00
C192   C     0.63098   0.51997   0.53684   0.00000  Uiso   1.00
C193   C     0.54063   0.49610   0.63049   0.00000  Uiso   1.00
C194   C     0.86318   0.53407   0.41029   0.00000  Uiso   1.00
C195   C     0.92418   0.47991   0.38473   0.00000  Uiso   1.00
C196   C     0.98772   0.45176   0.40504   0.00000  Uiso   1.00
C197   C     0.10384   0.38844   0.42240   0.00000  Uiso   1.00
C198   C     0.79255   0.61865   0.47632   0.00000  Uiso   1.00
C199   C     0.77649   0.68042   0.41479   0.00000  Uiso   1.00
C200   C     0.76506   0.75428   0.40168   0.00000  Uiso   1.00
C201   C     0.75114   0.80218   0.34264   0.00000  Uiso   1.00
C202   C     0.73258   0.58461   0.50372   0.00000  Uiso   1.00
C203   C     0.68424   0.57791   0.56537   0.00000  Uiso   1.00
C204   C     0.63337   0.54515   0.58120   0.00000  Uiso   1.00
C205   C     0.86557   0.55920   0.45458   0.00000  Uiso   1.00
C206   C     0.92903   0.53112   0.47493   0.00000  Uiso   1.00
C207   C     0.99011   0.47694   0.44941   0.00000  Uiso   1.00
H208   H     0.78631   0.55280   0.36031   0.00000  Uiso   1.00
H209   H     0.75836   0.68361   0.27722   0.00000  Uiso   1.00
H210   H     0.67757   0.50726   0.44089   0.00000  Uiso   1.00
H211   H     0.92231   0.46048   0.35047   0.00000  Uiso   1.00
H212   H     0.72840   0.83973   0.20464   0.00000  Uiso   1.00
H213   H     0.55805   0.46786   0.54976   0.00000  Uiso   1.00
H214   H     0.07415   0.36920   0.35907   0.00000  Uiso   1.00
H215   H     0.79441   0.63821   0.51080   0.00000  Uiso   1.00
H216   H     0.76690   0.77371   0.43596   0.00000  Uiso   1.00
H217   H     0.68610   0.59736   0.59963   0.00000  Uiso   1.00
H218   H     0.93085   0.55058   0.50920   0.00000  Uiso   1.00
H219   H     0.73533   0.91286   0.33348   0.00000  Uiso   1.00
H220   H     0.56498   0.54099   0.67860   0.00000  Uiso   1.00
H221   H     0.08108   0.44233   0.48791   0.00000  Uiso   1.00
O222   O     0.71360   0.96389   0.21713   0.00000  Uiso   1.00
O223   O     0.49012   0.47600   0.66991   0.00000  Uiso   1.00
O224   O     0.16723   0.34657   0.41973   0.00000  Uiso   1.00
N225   N     0.73382   0.83834   0.24523   0.00000  Uiso   1.00
N226   N     0.57455   0.49068   0.56789   0.00000  Uiso   1.00
N227   N     0.05705   0.39843   0.38963   0.00000  Uiso   1.00
N228   N     0.73755   0.87769   0.31455   0.00000  Uiso   1.00
N229   N     0.57828   0.53003   0.63722   0.00000  Uiso   1.00
N230   N     0.06078   0.43778   0.45895   0.00000  Uiso   1.00
C231   C     0.14275   0.80124   0.36980   0.00000  Uiso   1.00
C232   C     0.09196   0.76954   0.36885   0.00000  Uiso   1.00
C233   C     0.09275   0.75814   0.31539   0.00000  Uiso   1.00
C234   C     0.04184   0.72858   0.32447   0.00000  Uiso   1.00
C235   C     0.97058   0.68198   0.31383   0.00000  Uiso   1.00
C236   C     0.18193   0.74369   0.42207   0.00000  Uiso   1.00
C237   C     0.25837   0.71057   0.41336   0.00000  Uiso   1.00
C238   C     0.28320   0.65926   0.46724   0.00000  Uiso   1.00
C239   C     0.35163   0.57257   0.53923   0.00000  Uiso   1.00
C240   C     0.09146   0.86840   0.39467   0.00000  Uiso   1.00
C241   C     0.09183   0.94014   0.36292   0.00000  Uiso   1.00
C242   C     0.04050   0.99382   0.39374   0.00000  Uiso   1.00
C243   C     0.96845   0.10076   0.42318   0.00000  Uiso   1.00
C244   C     0.05095   0.76902   0.48099   0.00000  Uiso   1.00
C245   C     0.04210   0.75204   0.42925   0.00000  Uiso   1.00
C246   C     0.99117   0.72249   0.43841   0.00000  Uiso   1.00
C247   C     0.99188   0.71105   0.38498   0.00000  Uiso   1.00
C248   C     0.13207   0.72619   0.48247   0.00000  Uiso   1.00
C249   C     0.15679   0.67491   0.53638   0.00000  Uiso   1.00
C250   C     0.23325   0.64172   0.52775   0.00000  Uiso   1.00
C251   C     0.04159   0.85090   0.45506   0.00000  Uiso   1.00
C252   C     0.99025   0.90448   0.48594   0.00000  Uiso   1.00
C253   C     0.99054   0.97628   0.45425   0.00000  Uiso   1.00
H254   H     0.18158   0.81487   0.32278   0.00000  Uiso   1.00
H255   H     0.13135   0.77169   0.26866   0.00000  Uiso   1.00
H256   H     0.29695   0.72413   0.36662   0.00000  Uiso   1.00
H257   H     0.13043   0.95366   0.31619   0.00000  Uiso   1.00
H258   H     0.05369   0.71607   0.23531   0.00000  Uiso   1.00
H259   H     0.40285   0.61581   0.44185   0.00000  Uiso   1.00
H260   H     0.05172   0.09983   0.33551   0.00000  Uiso   1.00
H261   H     0.01212   0.75539   0.52801   0.00000  Uiso   1.00
H262   H     0.95259   0.70894   0.48516   0.00000  Uiso   1.00
H263   H     0.11819   0.66139   0.58311   0.00000  Uiso   1.00
H264   H     0.95167   0.89091   0.53268   0.00000  Uiso   1.00
H265   H     0.90860   0.66514   0.41102   0.00000  Uiso   1.00
H266   H     0.25777   0.56489   0.61756   0.00000  Uiso   1.00
H267   H     0.90664   0.04889   0.51122   0.00000  Uiso   1.00
O268   O     0.94506   0.66111   0.29127   0.00000  Uiso   1.00
O269   O     0.40315   0.52958   0.56225   0.00000  Uiso   1.00
O270   O     0.94247   0.16459   0.42273   0.00000  Uiso   1.00
N271   N     0.02771   0.71047   0.28254   0.00000  Uiso   1.00
N272   N     0.35415   0.61673   0.47564   0.00000  Uiso   1.00
N273   N     0.02589   0.06923   0.37623   0.00000  Uiso   1.00
N274   N     0.94963   0.68307   0.37709   0.00000  Uiso   1.00
N275   N     0.27608   0.58933   0.57019   0.00000  Uiso   1.00
N276   N     0.94782   0.04183   0.47078   0.00000  Uiso   1.00
C277   C     0.82776   0.55444   0.21942   0.00000  Uiso   1.00
C278   C     0.74504   0.57602   0.22861   0.00000  Uiso   1.00
C279   C     0.68803   0.59532   0.28149   0.00000  Uiso   1.00
C280   C     0.61604   0.61329   0.28076   0.00000  Uiso   1.00
C281   C     0.48979   0.64704   0.30290   0.00000  Uiso   1.00
C282   C     0.85452   0.60760   0.15532   0.00000  Uiso   1.00
C283   C     0.88956   0.65344   0.14657   0.00000  Uiso   1.00
C284   C     0.90975   0.69798   0.08414   0.00000  Uiso   1.00
C285   C     0.95351   0.78072   0.99249   0.00000  Uiso   1.00
C286   C     0.86557   0.47806   0.20899   0.00000  Uiso   1.00
C287   C     0.90993   0.41497   0.24536   0.00000  Uiso   1.00
C288   C     0.93943   0.35045   0.22811   0.00000  Uiso   1.00
C289   C     0.00036   0.23204   0.21979   0.00000  Uiso   1.00
C290   C     0.80130   0.55204   0.12409   0.00000  Uiso   1.00
C291   C     0.73067   0.57473   0.17683   0.00000  Uiso   1.00
C292   C     0.65875   0.59267   0.17602   0.00000  Uiso   1.00
C293   C     0.60164   0.61199   0.22889   0.00000  Uiso   1.00
C294   C     0.84015   0.60630   0.10354   0.00000  Uiso   1.00
C295   C     0.86029   0.65079   0.04111   0.00000  Uiso   1.00
C296   C     0.89535   0.69668   0.03227   0.00000  Uiso   1.00
C297   C     0.85120   0.47675   0.15721   0.00000  Uiso   1.00
C298   C     0.88065   0.41232   0.13990   0.00000  Uiso   1.00
C299   C     0.92504   0.34914   0.17624   0.00000  Uiso   1.00
H300   H     0.83895   0.55545   0.25972   0.00000  Uiso   1.00
H301   H     0.69917   0.59632   0.32155   0.00000  Uiso   1.00
H302   H     0.90068   0.65442   0.18665   0.00000  Uiso   1.00
H303   H     0.92104   0.41599   0.28543   0.00000  Uiso   1.00
H304   H     0.53787   0.64109   0.36725   0.00000  Uiso   1.00
H305   H     0.96279   0.76358   0.08281   0.00000  Uiso   1.00
H306   H     0.00571   0.26080   0.29110   0.00000  Uiso   1.00
H307   H     0.79011   0.55103   0.08378   0.00000  Uiso   1.00
H308   H     0.64765   0.59166   0.13595   0.00000  Uiso   1.00
H309   H     0.84916   0.64977   0.00105   0.00000  Uiso   1.00
H310   H     0.86952   0.41133   0.09983   0.00000  Uiso   1.00
H311   H     0.49605   0.63731   0.21661   0.00000  Uiso   1.00
H312   H     0.92097   0.75980   0.93216   0.00000  Uiso   1.00
H313   H     0.96390   0.25702   0.14046   0.00000  Uiso   1.00
O314   O     0.42412   0.66603   0.32941   0.00000  Uiso   1.00
O315   O     0.98161   0.82672   0.95623   0.00000  Uiso   1.00
O316   O     0.03793   0.16709   0.22951   0.00000  Uiso   1.00
N317   N     0.54758   0.63461   0.32464   0.00000  Uiso   1.00
N318   N     0.94484   0.74914   0.05871   0.00000  Uiso   1.00
N319   N     0.98499   0.27909   0.25343   0.00000  Uiso   1.00
N320   N     0.52507   0.63258   0.24358   0.00000  Uiso   1.00
N321   N     0.92234   0.74711   0.97765   0.00000  Uiso   1.00
N322   N     0.96249   0.27705   0.17237   0.00000  Uiso   1.00
C323   C     0.66133   0.23438   0.19392   0.00000  Uiso   1.00
C324   C     0.67849   0.27878   0.21799   0.00000  Uiso   1.00
C325   C     0.68968   0.25704   0.27814   0.00000  Uiso   1.00
C326   C     0.70474   0.30549   0.29092   0.00000  Uiso   1.00
C327   C     0.73085   0.36412   0.33525   0.00000  Uiso   1.00
C328   C     0.72146   0.22487   0.13120   0.00000  Uiso   1.00
C329   C     0.76877   0.15780   0.11837   0.00000  Uiso   1.00
C330   C     0.81999   0.16088   0.05809   0.00000  Uiso   1.00
C331   C     0.91278   0.13582   0.96765   0.00000  Uiso   1.00
C332   C     0.58876   0.28494   0.17482   0.00000  Uiso   1.00
C333   C     0.52449   0.26836   0.19865   0.00000  Uiso   1.00
C334   C     0.46400   0.32201   0.17508   0.00000  Uiso   1.00
C335   C     0.35074   0.39020   0.15237   0.00000  Uiso   1.00
C336   C     0.66818   0.35910   0.10966   0.00000  Uiso   1.00
C337   C     0.68221   0.34653   0.17222   0.00000  Uiso   1.00
C338   C     0.69725   0.39503   0.18492   0.00000  Uiso   1.00
C339   C     0.70846   0.37336   0.24508   0.00000  Uiso   1.00
C340   C     0.72518   0.29261   0.08543   0.00000  Uiso   1.00
C341   C     0.77634   0.29579   0.02515   0.00000  Uiso   1.00
C342   C     0.82372   0.22875   0.01224   0.00000  Uiso   1.00
C343   C     0.59247   0.35268   0.12905   0.00000  Uiso   1.00
C344   C     0.53206   0.40636   0.10543   0.00000  Uiso   1.00
C345   C     0.46772   0.38987   0.12923   0.00000  Uiso   1.00
H346   H     0.65844   0.18163   0.22955   0.00000  Uiso   1.00
H347   H     0.68680   0.20460   0.31354   0.00000  Uiso   1.00
H348   H     0.76587   0.10539   0.15380   0.00000  Uiso   1.00
H349   H     0.52164   0.21594   0.23407   0.00000  Uiso   1.00
H350   H     0.71991   0.25994   0.38648   0.00000  Uiso   1.00
H351   H     0.88662   0.05073   0.04964   0.00000  Uiso   1.00
H352   H     0.37160   0.28384   0.21890   0.00000  Uiso   1.00
H353   H     0.67107   0.41184   0.07403   0.00000  Uiso   1.00
H354   H     0.70012   0.44745   0.14949   0.00000  Uiso   1.00
H355   H     0.77920   0.34823   0.98975   0.00000  Uiso   1.00
H356   H     0.53496   0.45877   0.07002   0.00000  Uiso   1.00
H357   H     0.73073   0.45703   0.25333   0.00000  Uiso   1.00
H358   H     0.89744   0.24783   0.91648   0.00000  Uiso   1.00
H359   H     0.38241   0.48094   0.08575   0.00000  Uiso   1.00
O360   O     0.74423   0.37774   0.37234   0.00000  Uiso   1.00
O361   O     0.96293   0.10328   0.93042   0.00000  Uiso   1.00
O362   O     0.28724   0.40911   0.15250   0.00000  Uiso   1.00
N363   N     0.71846   0.30144   0.34479   0.00000  Uiso   1.00
N364   N     0.87433   0.10585   0.02986   0.00000  Uiso   1.00
N365   N     0.39283   0.32378   0.18810   0.00000  Uiso   1.00
N366   N     0.72428   0.40750   0.27314   0.00000  Uiso   1.00
N367   N     0.88015   0.21191   0.95822   0.00000  Uiso   1.00
N368   N     0.39865   0.42983   0.11646   0.00000  Uiso   1.00
C369   C     0.32137   0.77629   0.21278   0.00000  Uiso   1.00
C370   C     0.34962   0.69413   0.21903   0.00000  Uiso   1.00
C371   C     0.32885   0.63995   0.27369   0.00000  Uiso   1.00
C372   C     0.36096   0.56799   0.26968   0.00000  Uiso   1.00
C373   C     0.39704   0.44302   0.28799   0.00000  Uiso   1.00
C374   C     0.28855   0.81789   0.15493   0.00000  Uiso   1.00
C375   C     0.21645   0.86777   0.15571   0.00000  Uiso   1.00
C376   C     0.19717   0.90001   0.09774   0.00000  Uiso   1.00
C377   C     0.13846   0.96722   0.01653   0.00000  Uiso   1.00
C378   C     0.39032   0.79530   0.19289   0.00000  Uiso   1.00
C379   C     0.40378   0.82620   0.22556   0.00000  Uiso   1.00
C380   C     0.47018   0.83943   0.19954   0.00000  Uiso   1.00
C381   C     0.56947   0.87156   0.17727   0.00000  Uiso   1.00
C382   C     0.41534   0.74484   0.10846   0.00000  Uiso   1.00
C383   C     0.40066   0.67705   0.16236   0.00000  Uiso   1.00
C384   C     0.43282   0.60516   0.15827   0.00000  Uiso   1.00
C385   C     0.41210   0.55088   0.21292   0.00000  Uiso   1.00
C386   C     0.33959   0.80081   0.09827   0.00000  Uiso   1.00
C387   C     0.32042   0.83298   0.04029   0.00000  Uiso   1.00
C388   C     0.24830   0.88290   0.04097   0.00000  Uiso   1.00
C389   C     0.44137   0.77822   0.13622   0.00000  Uiso   1.00
C390   C     0.50775   0.79141   0.11014   0.00000  Uiso   1.00
C391   C     0.52131   0.82232   0.14278   0.00000  Uiso   1.00
H392   H     0.28162   0.78959   0.25689   0.00000  Uiso   1.00
H393   H     0.28934   0.65319   0.31753   0.00000  Uiso   1.00
H394   H     0.17696   0.88099   0.19956   0.00000  Uiso   1.00
H395   H     0.36427   0.83941   0.26941   0.00000  Uiso   1.00
H396   H     0.32038   0.49444   0.35976   0.00000  Uiso   1.00
H397   H     0.08344   0.97478   0.11101   0.00000  Uiso   1.00
H398   H     0.47840   0.88712   0.25830   0.00000  Uiso   1.00
H399   H     0.45508   0.73155   0.06434   0.00000  Uiso   1.00
H400   H     0.47232   0.59196   0.11441   0.00000  Uiso   1.00
H401   H     0.35994   0.81976   0.99644   0.00000  Uiso   1.00
H402   H     0.54724   0.77818   0.06629   0.00000  Uiso   1.00
H403   H     0.46889   0.44474   0.19491   0.00000  Uiso   1.00
H404   H     0.23194   0.92508   0.94615   0.00000  Uiso   1.00
H405   H     0.62691   0.83742   0.09345   0.00000  Uiso   1.00
O406   O     0.40282   0.37881   0.31374   0.00000  Uiso   1.00
O407   O     0.09197   0.00901   0.98739   0.00000  Uiso   1.00
O408   O     0.61015   0.89400   0.18064   0.00000  Uiso   1.00
N409   N     0.35298   0.50189   0.31410   0.00000  Uiso   1.00
N410   N     0.13144   0.95098   0.08153   0.00000  Uiso   1.00
N411   N     0.50069   0.86904   0.21923   0.00000  Uiso   1.00
N412   N     0.43289   0.47515   0.22539   0.00000  Uiso   1.00
N413   N     0.21136   0.92423   0.99282   0.00000  Uiso   1.00
N414   N     0.58061   0.84230   0.13052   0.00000  Uiso   1.00
C415   C     0.32722   0.81766   0.71225   0.00000  Uiso   1.00
C416   C     0.24371   0.86091   0.72435   0.00000  Uiso   1.00
C417   C     0.18915   0.83993   0.77802   0.00000  Uiso   1.00
C418   C     0.11592   0.88708   0.78005   0.00000  Uiso   1.00
C419   C     0.98898   0.94422   0.80641   0.00000  Uiso   1.00
C420   C     0.35267   0.80419   0.64708   0.00000  Uiso   1.00
C421   C     0.38974   0.73551   0.63579   0.00000  Uiso   1.00
C422   C     0.40824   0.73492   0.57277   0.00000  Uiso   1.00
C423   C     0.45052   0.70400   0.47917   0.00000  Uiso   1.00
C424   C     0.36261   0.87084   0.70237   0.00000  Uiso   1.00
C425   C     0.40806   0.85820   0.73755   0.00000  Uiso   1.00
C426   C     0.43494   0.91371   0.72107   0.00000  Uiso   1.00
C427   C     0.49266   0.98627   0.71330   0.00000  Uiso   1.00
C428   C     0.29416   0.93872   0.62040   0.00000  Uiso   1.00
C429   C     0.22576   0.92666   0.67446   0.00000  Uiso   1.00
C430   C     0.15259   0.97386   0.67641   0.00000  Uiso   1.00
C431   C     0.09793   0.95296   0.73008   0.00000  Uiso   1.00
C432   C     0.33472   0.86994   0.59719   0.00000  Uiso   1.00
C433   C     0.35317   0.86945   0.53418   0.00000  Uiso   1.00
C434   C     0.39025   0.80079   0.52279   0.00000  Uiso   1.00
C435   C     0.34466   0.93659   0.65248   0.00000  Uiso   1.00
C436   C     0.37148   0.99213   0.63593   0.00000  Uiso   1.00
C437   C     0.41696   0.97958   0.67109   0.00000  Uiso   1.00
H438   H     0.34120   0.76647   0.75108   0.00000  Uiso   1.00
H439   H     0.20307   0.78904   0.81662   0.00000  Uiso   1.00
H440   H     0.40363   0.68464   0.67441   0.00000  Uiso   1.00
H441   H     0.42194   0.80731   0.77615   0.00000  Uiso   1.00
H442   H     0.04201   0.84304   0.86726   0.00000  Uiso   1.00
H443   H     0.46493   0.62292   0.56740   0.00000  Uiso   1.00
H444   H     0.50354   0.88159   0.78195   0.00000  Uiso   1.00
H445   H     0.28019   0.98991   0.58156   0.00000  Uiso   1.00
H446   H     0.13871   0.02474   0.63779   0.00000  Uiso   1.00
H447   H     0.33927   0.92034   0.49558   0.00000  Uiso   1.00
H448   H     0.35758   0.04301   0.59733   0.00000  Uiso   1.00
H449   H     0.98978   0.03435   0.72212   0.00000  Uiso   1.00
H450   H     0.41270   0.81422   0.42226   0.00000  Uiso   1.00
H451   H     0.45130   0.07289   0.63681   0.00000  Uiso   1.00
O452   O     0.92393   0.95757   0.83473   0.00000  Uiso   1.00
O453   O     0.47879   0.66877   0.44132   0.00000  Uiso   1.00
O454   O     0.52944   0.00814   0.72281   0.00000  Uiso   1.00
N455   N     0.04914   0.88330   0.82539   0.00000  Uiso   1.00
N456   N     0.44453   0.67749   0.54504   0.00000  Uiso   1.00
N457   N     0.48064   0.91931   0.74561   0.00000  Uiso   1.00
N458   N     0.02103   0.98623   0.74729   0.00000  Uiso   1.00
N459   N     0.41642   0.78043   0.46694   0.00000  Uiso   1.00
N460   N     0.45253   0.02225   0.66751   0.00000  Uiso   1.00
C461   C     0.16848   0.32344   0.68832   0.00000  Uiso   1.00
C462   C     0.18251   0.24050   0.71320   0.00000  Uiso   1.00
C463   C     0.19822   0.19289   0.77166   0.00000  Uiso   1.00
C464   C     0.20931   0.11892   0.78557   0.00000  Uiso   1.00
C465   C     0.23181   0.99399   0.83075   0.00000  Uiso   1.00
C466   C     0.22490   0.33623   0.62264   0.00000  Uiso   1.00
C467   C     0.27625   0.36911   0.60494   0.00000  Uiso   1.00
C468   C     0.32302   0.37573   0.54261   0.00000  Uiso   1.00
C469   C     0.41130   0.39947   0.44717   0.00000  Uiso   1.00
C470   C     0.09239   0.36159   0.67480   0.00000  Uiso   1.00
C471   C     0.03232   0.41580   0.70096   0.00000  Uiso   1.00
C472   C     0.96752   0.44379   0.68253   0.00000  Uiso   1.00
C473   C     0.85005   0.50689   0.66808   0.00000  Uiso   1.00
C474   C     0.16023   0.27675   0.60907   0.00000  Uiso   1.00
C475   C     0.17803   0.21515   0.67016   0.00000  Uiso   1.00
C476   C     0.18910   0.14123   0.68399   0.00000  Uiso   1.00
C477   C     0.20482   0.09351   0.74245   0.00000  Uiso   1.00
C478   C     0.22043   0.31087   0.57960   0.00000  Uiso   1.00
C479   C     0.26713   0.31745   0.51727   0.00000  Uiso   1.00
C480   C     0.31854   0.35032   0.49949   0.00000  Uiso   1.00
C481   C     0.08791   0.33623   0.63176   0.00000  Uiso   1.00
C482   C     0.02319   0.36414   0.61329   0.00000  Uiso   1.00
C483   C     0.96304   0.41838   0.63941   0.00000  Uiso   1.00
H484   H     0.17197   0.34319   0.72182   0.00000  Uiso   1.00
H485   H     0.20169   0.21253   0.80495   0.00000  Uiso   1.00
H486   H     0.27970   0.38873   0.63826   0.00000  Uiso   1.00
H487   H     0.03581   0.43541   0.73426   0.00000  Uiso   1.00
H488   H     0.23269   0.05649   0.87812   0.00000  Uiso   1.00
H489   H     0.39716   0.42804   0.52664   0.00000  Uiso   1.00
H490   H     0.88286   0.52648   0.72907   0.00000  Uiso   1.00
H491   H     0.15675   0.25701   0.57556   0.00000  Uiso   1.00
H492   H     0.18563   0.12162   0.65067   0.00000  Uiso   1.00
H493   H     0.26364   0.29782   0.48398   0.00000  Uiso   1.00
H494   H     0.01975   0.34450   0.57998   0.00000  Uiso   1.00
H495   H     0.21966   0.98270   0.75290   0.00000  Uiso   1.00
H496   H     0.38413   0.35426   0.40142   0.00000  Uiso   1.00
H497   H     0.86983   0.45269   0.60385   0.00000  Uiso   1.00
O498   O     0.24547   0.93209   0.86755   0.00000  Uiso   1.00
O499   O     0.46124   0.41956   0.40641   0.00000  Uiso   1.00
O500   O     0.78649   0.54870   0.67200   0.00000  Uiso   1.00
N501   N     0.22564   0.05771   0.83835   0.00000  Uiso   1.00
N502   N     0.37942   0.40508   0.50974   0.00000  Uiso   1.00
N503   N     0.89860   0.49712   0.69898   0.00000  Uiso   1.00
N504   N     0.21863   0.01800   0.77097   0.00000  Uiso   1.00
N505   N     0.37241   0.36537   0.44236   0.00000  Uiso   1.00
N506   N     0.89159   0.45741   0.63160   0.00000  Uiso   1.00
C507   C     0.82315   0.10117   0.70935   0.00000  Uiso   1.00
C508   C     0.85987   0.14061   0.71974   0.00000  Uiso   1.00
C509   C     0.84533   0.15303   0.77723   0.00000  Uiso   1.00
C510   C     0.88474   0.19014   0.77683   0.00000  Uiso   1.00
C511   C     0.93380   0.24779   0.80145   0.00000  Uiso   1.00
C512   C     0.78885   0.15551   0.65338   0.00000  Uiso   1.00
C513   C     0.71461   0.18045   0.65508   0.00000  Uiso   1.00
C514   C     0.69425   0.23008   0.59882   0.00000  Uiso   1.00
C515   C     0.63307   0.31082   0.52041   0.00000  Uiso   1.00
C516   C     0.88641   0.03741   0.68438   0.00000  Uiso   1.00
C517   C     0.89419   0.96306   0.71214   0.00000  Uiso   1.00
C518   C     0.95596   0.91327   0.68197   0.00000  Uiso   1.00
C519   C     0.04626   0.81065   0.65170   0.00000  Uiso   1.00
C520   C     0.91900   0.14496   0.60640   0.00000  Uiso   1.00
C521   C     0.91193   0.16440   0.66382   0.00000  Uiso   1.00
C522   C     0.95137   0.20149   0.66333   0.00000  Uiso   1.00
C523   C     0.93690   0.21396   0.72081   0.00000  Uiso   1.00
C524   C     0.84091   0.17930   0.59746   0.00000  Uiso   1.00
C525   C     0.82066   0.22890   0.54118   0.00000  Uiso   1.00
C526   C     0.74640   0.25391   0.54280   0.00000  Uiso   1.00
C527   C     0.93848   0.06120   0.62847   0.00000  Uiso   1.00
C528   C     0.00024   0.01152   0.59824   0.00000  Uiso   1.00
C529   C     0.00811   0.93710   0.62595   0.00000  Uiso   1.00
H530   H     0.78262   0.08265   0.75288   0.00000  Uiso   1.00
H531   H     0.80503   0.13462   0.82049   0.00000  Uiso   1.00
H532   H     0.67433   0.16202   0.69836   0.00000  Uiso   1.00
H533   H     0.85389   0.94467   0.75541   0.00000  Uiso   1.00
H534   H     0.85281   0.20275   0.87078   0.00000  Uiso   1.00
H535   H     0.57725   0.26051   0.61326   0.00000  Uiso   1.00
H536   H     0.95587   0.80218   0.73356   0.00000  Uiso   1.00
H537   H     0.95954   0.16349   0.56287   0.00000  Uiso   1.00
H538   H     0.99166   0.21989   0.62005   0.00000  Uiso   1.00
H539   H     0.86096   0.24729   0.49792   0.00000  Uiso   1.00
H540   H     0.04052   0.02994   0.55497   0.00000  Uiso   1.00
H541   H     0.00429   0.27197   0.70809   0.00000  Uiso   1.00
H542   H     0.72872   0.32972   0.45057   0.00000  Uiso   1.00
H543   H     0.10735   0.87140   0.57088   0.00000  Uiso   1.00
O544   O     0.94647   0.27303   0.83047   0.00000  Uiso   1.00
O545   O     0.58494   0.34879   0.49261   0.00000  Uiso   1.00
O546   O     0.08169   0.74748   0.65046   0.00000  Uiso   1.00
N547   N     0.88407   0.21129   0.82465   0.00000  Uiso   1.00
N548   N     0.62642   0.26530   0.58388   0.00000  Uiso   1.00
N549   N     0.98040   0.83680   0.69635   0.00000  Uiso   1.00
N550   N     0.96557   0.24853   0.73711   0.00000  Uiso   1.00
N551   N     0.70793   0.30254   0.49634   0.00000  Uiso   1.00
N552   N     0.06191   0.87404   0.60881   0.00000  Uiso   1.00
