data_job_05537
_audit_creation_date              2018-12-19
_audit_creation_method            'Materials Studio'
_symmetry_space_group_name_H-M    'P1'
_symmetry_Int_Tables_number       1
_symmetry_cell_setting            triclinic
loop_
_symmetry_equiv_pos_as_xyz
  x,y,z
_cell_length_a                    25.4906
_cell_length_b                    15.3659
_cell_length_c                    19.9629
_cell_angle_alpha                 90.0000
_cell_angle_beta                  90.0000
_cell_angle_gamma                 90.0000
loop_
_atom_site_label
_atom_site_type_symbol
_atom_site_fract_x
_atom_site_fract_y
_atom_site_fract_z
_atom_site_U_iso_or_equiv
_atom_site_adp_type
_atom_site_occupancy
C1     C     0.59434   0.39222   0.31898   0.00000  Uiso   1.00
C2     C     0.57414   0.31390   0.27979   0.00000  Uiso   1.00
C3     C     0.52297   0.30180   0.25797   0.00000  Uiso   1.00
C4     C     0.51238   0.22579   0.22290   0.00000  Uiso   1.00
C5     C     0.47505   0.11353   0.16401   0.00000  Uiso   1.00
C6     C     0.61863   0.35573   0.38289   0.00000  Uiso   1.00
C7     C     0.60486   0.37881   0.44776   0.00000  Uiso   1.00
C8     C     0.63173   0.33801   0.49948   0.00000  Uiso   1.00
C9     C     0.66350   0.29075   0.60065   0.00000  Uiso   1.00
C10    C     0.63971   0.42925   0.27817   0.00000  Uiso   1.00
C11    C     0.64367   0.51416   0.25501   0.00000  Uiso   1.00
C12    C     0.68829   0.53526   0.21857   0.00000  Uiso   1.00
C13    C     0.75278   0.60215   0.15715   0.00000  Uiso   1.00
C14    C     0.66653   0.27874   0.29547   0.00000  Uiso   1.00
C15    C     0.61336   0.25226   0.26702   0.00000  Uiso   1.00
C16    C     0.60284   0.17625   0.23196   0.00000  Uiso   1.00
C17    C     0.55166   0.16404   0.21010   0.00000  Uiso   1.00
C18    C     0.65784   0.29410   0.37012   0.00000  Uiso   1.00
C19    C     0.68474   0.25326   0.42175   0.00000  Uiso   1.00
C20    C     0.67101   0.27626   0.48669   0.00000  Uiso   1.00
C21    C     0.67892   0.36761   0.26540   0.00000  Uiso   1.00
C22    C     0.72354   0.38860   0.22899   0.00000  Uiso   1.00
C23    C     0.72757   0.47351   0.20578   0.00000  Uiso   1.00
H24    H     0.56381   0.44021   0.32893   0.00000  Uiso   1.00
H25    H     0.49263   0.34952   0.26787   0.00000  Uiso   1.00
H26    H     0.57452   0.42652   0.45763   0.00000  Uiso   1.00
H27    H     0.61332   0.56184   0.26490   0.00000  Uiso   1.00
H28    H     0.43101   0.22177   0.19457   0.00000  Uiso   1.00
H29    H     0.60369   0.38416   0.59468   0.00000  Uiso   1.00
H30    H     0.68550   0.66951   0.18827   0.00000  Uiso   1.00
H31    H     0.69706   0.23075   0.28553   0.00000  Uiso   1.00
H32    H     0.63320   0.12856   0.22209   0.00000  Uiso   1.00
H33    H     0.71508   0.20557   0.41185   0.00000  Uiso   1.00
H34    H     0.75388   0.34088   0.21912   0.00000  Uiso   1.00
H35    H     0.54509   0.04243   0.15741   0.00000  Uiso   1.00
H36    H     0.71777   0.20482   0.55753   0.00000  Uiso   1.00
H37    H     0.79959   0.49017   0.15112   0.00000  Uiso   1.00
O38    O     0.44363   0.06864   0.13506   0.00000  Uiso   1.00
O39    O     0.67018   0.28171   0.65999   0.00000  Uiso   1.00
O40    O     0.77752   0.65607   0.12679   0.00000  Uiso   1.00
N41    N     0.46662   0.19359   0.19452   0.00000  Uiso   1.00
N42    N     0.62806   0.34541   0.56860   0.00000  Uiso   1.00
N43    N     0.70456   0.61219   0.18866   0.00000  Uiso   1.00
N44    N     0.52801   0.09709   0.17453   0.00000  Uiso   1.00
N45    N     0.68945   0.24891   0.54861   0.00000  Uiso   1.00
N46    N     0.76595   0.51569   0.16867   0.00000  Uiso   1.00
C47    C     0.59434   0.89222   0.81898   0.00000  Uiso   1.00
C48    C     0.57414   0.81390   0.77979   0.00000  Uiso   1.00
C49    C     0.52297   0.80180   0.75797   0.00000  Uiso   1.00
C50    C     0.51238   0.72579   0.72290   0.00000  Uiso   1.00
C51    C     0.47505   0.61353   0.66401   0.00000  Uiso   1.00
C52    C     0.61863   0.85573   0.88289   0.00000  Uiso   1.00
C53    C     0.60486   0.87881   0.94776   0.00000  Uiso   1.00
C54    C     0.63173   0.83801   0.99948   0.00000  Uiso   1.00
C55    C     0.66350   0.79075   0.10065   0.00000  Uiso   1.00
C56    C     0.63971   0.92925   0.77817   0.00000  Uiso   1.00
C57    C     0.64367   0.01416   0.75501   0.00000  Uiso   1.00
C58    C     0.68829   0.03526   0.71857   0.00000  Uiso   1.00
C59    C     0.75278   0.10215   0.65715   0.00000  Uiso   1.00
C60    C     0.66653   0.77874   0.79547   0.00000  Uiso   1.00
C61    C     0.61336   0.75226   0.76702   0.00000  Uiso   1.00
C62    C     0.60284   0.67625   0.73196   0.00000  Uiso   1.00
C63    C     0.55166   0.66404   0.71010   0.00000  Uiso   1.00
C64    C     0.65784   0.79410   0.87012   0.00000  Uiso   1.00
C65    C     0.68474   0.75326   0.92175   0.00000  Uiso   1.00
C66    C     0.67101   0.77626   0.98669   0.00000  Uiso   1.00
C67    C     0.67892   0.86761   0.76540   0.00000  Uiso   1.00
C68    C     0.72354   0.88860   0.72899   0.00000  Uiso   1.00
C69    C     0.72757   0.97351   0.70578   0.00000  Uiso   1.00
H70    H     0.56381   0.94021   0.82893   0.00000  Uiso   1.00
H71    H     0.49263   0.84952   0.76787   0.00000  Uiso   1.00
H72    H     0.57452   0.92652   0.95763   0.00000  Uiso   1.00
H73    H     0.61332   0.06184   0.76490   0.00000  Uiso   1.00
H74    H     0.43101   0.72177   0.69457   0.00000  Uiso   1.00
H75    H     0.60369   0.88416   0.09468   0.00000  Uiso   1.00
H76    H     0.68550   0.16951   0.68827   0.00000  Uiso   1.00
H77    H     0.69706   0.73075   0.78553   0.00000  Uiso   1.00
H78    H     0.63320   0.62856   0.72209   0.00000  Uiso   1.00
H79    H     0.71508   0.70557   0.91185   0.00000  Uiso   1.00
H80    H     0.75388   0.84088   0.71912   0.00000  Uiso   1.00
H81    H     0.54509   0.54243   0.65741   0.00000  Uiso   1.00
H82    H     0.71777   0.70482   0.05753   0.00000  Uiso   1.00
H83    H     0.79959   0.99017   0.65112   0.00000  Uiso   1.00
O84    O     0.44363   0.56864   0.63506   0.00000  Uiso   1.00
O85    O     0.67018   0.78171   0.15999   0.00000  Uiso   1.00
O86    O     0.77752   0.15607   0.62679   0.00000  Uiso   1.00
N87    N     0.46662   0.69359   0.69452   0.00000  Uiso   1.00
N88    N     0.62806   0.84541   0.06860   0.00000  Uiso   1.00
N89    N     0.70456   0.11219   0.68866   0.00000  Uiso   1.00
N90    N     0.52801   0.59709   0.67453   0.00000  Uiso   1.00
N91    N     0.68945   0.74891   0.04861   0.00000  Uiso   1.00
N92    N     0.76595   0.01569   0.66867   0.00000  Uiso   1.00
C93    C     0.40566   0.60778   0.31898   0.00000  Uiso   1.00
C94    C     0.42586   0.68610   0.27979   0.00000  Uiso   1.00
C95    C     0.47703   0.69820   0.25797   0.00000  Uiso   1.00
C96    C     0.48762   0.77421   0.22290   0.00000  Uiso   1.00
C97    C     0.52495   0.88647   0.16401   0.00000  Uiso   1.00
C98    C     0.38137   0.64427   0.38289   0.00000  Uiso   1.00
C99    C     0.39514   0.62119   0.44776   0.00000  Uiso   1.00
C100   C     0.36827   0.66199   0.49948   0.00000  Uiso   1.00
C101   C     0.33650   0.70925   0.60065   0.00000  Uiso   1.00
C102   C     0.36029   0.57075   0.27817   0.00000  Uiso   1.00
C103   C     0.35633   0.48584   0.25501   0.00000  Uiso   1.00
C104   C     0.31171   0.46474   0.21857   0.00000  Uiso   1.00
C105   C     0.24722   0.39785   0.15715   0.00000  Uiso   1.00
C106   C     0.33347   0.72126   0.29547   0.00000  Uiso   1.00
C107   C     0.38664   0.74774   0.26702   0.00000  Uiso   1.00
C108   C     0.39716   0.82375   0.23196   0.00000  Uiso   1.00
C109   C     0.44834   0.83596   0.21010   0.00000  Uiso   1.00
C110   C     0.34216   0.70590   0.37012   0.00000  Uiso   1.00
C111   C     0.31526   0.74674   0.42175   0.00000  Uiso   1.00
C112   C     0.32899   0.72374   0.48669   0.00000  Uiso   1.00
C113   C     0.32108   0.63239   0.26540   0.00000  Uiso   1.00
C114   C     0.27646   0.61140   0.22899   0.00000  Uiso   1.00
C115   C     0.27243   0.52649   0.20578   0.00000  Uiso   1.00
H116   H     0.43619   0.55979   0.32893   0.00000  Uiso   1.00
H117   H     0.50737   0.65048   0.26787   0.00000  Uiso   1.00
H118   H     0.42548   0.57348   0.45763   0.00000  Uiso   1.00
H119   H     0.38668   0.43816   0.26490   0.00000  Uiso   1.00
H120   H     0.56899   0.77823   0.19457   0.00000  Uiso   1.00
H121   H     0.39631   0.61584   0.59468   0.00000  Uiso   1.00
H122   H     0.31450   0.33049   0.18827   0.00000  Uiso   1.00
H123   H     0.30294   0.76925   0.28553   0.00000  Uiso   1.00
H124   H     0.36680   0.87144   0.22209   0.00000  Uiso   1.00
H125   H     0.28492   0.79443   0.41185   0.00000  Uiso   1.00
H126   H     0.24612   0.65912   0.21912   0.00000  Uiso   1.00
H127   H     0.45491   0.95757   0.15741   0.00000  Uiso   1.00
H128   H     0.28223   0.79518   0.55753   0.00000  Uiso   1.00
H129   H     0.20041   0.50983   0.15112   0.00000  Uiso   1.00
O130   O     0.55637   0.93136   0.13506   0.00000  Uiso   1.00
O131   O     0.32982   0.71829   0.65999   0.00000  Uiso   1.00
O132   O     0.22248   0.34393   0.12679   0.00000  Uiso   1.00
N133   N     0.53338   0.80641   0.19452   0.00000  Uiso   1.00
N134   N     0.37194   0.65459   0.56860   0.00000  Uiso   1.00
N135   N     0.29544   0.38781   0.18866   0.00000  Uiso   1.00
N136   N     0.47199   0.90291   0.17453   0.00000  Uiso   1.00
N137   N     0.31055   0.75109   0.54861   0.00000  Uiso   1.00
N138   N     0.23405   0.48431   0.16867   0.00000  Uiso   1.00
C139   C     0.40566   0.10778   0.81898   0.00000  Uiso   1.00
C140   C     0.42586   0.18610   0.77979   0.00000  Uiso   1.00
C141   C     0.47703   0.19820   0.75797   0.00000  Uiso   1.00
C142   C     0.48762   0.27421   0.72290   0.00000  Uiso   1.00
C143   C     0.52495   0.38647   0.66401   0.00000  Uiso   1.00
C144   C     0.38137   0.14427   0.88289   0.00000  Uiso   1.00
C145   C     0.39514   0.12119   0.94776   0.00000  Uiso   1.00
C146   C     0.36827   0.16199   0.99948   0.00000  Uiso   1.00
C147   C     0.33650   0.20925   0.10065   0.00000  Uiso   1.00
C148   C     0.36029   0.07075   0.77817   0.00000  Uiso   1.00
C149   C     0.35633   0.98584   0.75501   0.00000  Uiso   1.00
C150   C     0.31171   0.96474   0.71857   0.00000  Uiso   1.00
C151   C     0.24722   0.89785   0.65715   0.00000  Uiso   1.00
C152   C     0.33347   0.22126   0.79547   0.00000  Uiso   1.00
C153   C     0.38664   0.24774   0.76702   0.00000  Uiso   1.00
C154   C     0.39716   0.32375   0.73196   0.00000  Uiso   1.00
C155   C     0.44834   0.33596   0.71010   0.00000  Uiso   1.00
C156   C     0.34216   0.20590   0.87012   0.00000  Uiso   1.00
C157   C     0.31526   0.24674   0.92175   0.00000  Uiso   1.00
C158   C     0.32899   0.22374   0.98669   0.00000  Uiso   1.00
C159   C     0.32108   0.13239   0.76540   0.00000  Uiso   1.00
C160   C     0.27646   0.11140   0.72899   0.00000  Uiso   1.00
C161   C     0.27243   0.02649   0.70578   0.00000  Uiso   1.00
H162   H     0.43619   0.05979   0.82893   0.00000  Uiso   1.00
H163   H     0.50737   0.15048   0.76787   0.00000  Uiso   1.00
H164   H     0.42548   0.07348   0.95763   0.00000  Uiso   1.00
H165   H     0.38668   0.93816   0.76490   0.00000  Uiso   1.00
H166   H     0.56899   0.27823   0.69457   0.00000  Uiso   1.00
H167   H     0.39631   0.11584   0.09468   0.00000  Uiso   1.00
H168   H     0.31450   0.83049   0.68827   0.00000  Uiso   1.00
H169   H     0.30294   0.26925   0.78553   0.00000  Uiso   1.00
H170   H     0.36680   0.37144   0.72209   0.00000  Uiso   1.00
H171   H     0.28492   0.29443   0.91185   0.00000  Uiso   1.00
H172   H     0.24612   0.15912   0.71912   0.00000  Uiso   1.00
H173   H     0.45491   0.45757   0.65741   0.00000  Uiso   1.00
H174   H     0.28223   0.29518   0.05753   0.00000  Uiso   1.00
H175   H     0.20041   0.00983   0.65112   0.00000  Uiso   1.00
O176   O     0.55637   0.43136   0.63506   0.00000  Uiso   1.00
O177   O     0.32982   0.21829   0.15999   0.00000  Uiso   1.00
O178   O     0.22248   0.84393   0.62679   0.00000  Uiso   1.00
N179   N     0.53338   0.30641   0.69452   0.00000  Uiso   1.00
N180   N     0.37194   0.15459   0.06860   0.00000  Uiso   1.00
N181   N     0.29544   0.88781   0.68866   0.00000  Uiso   1.00
N182   N     0.47199   0.40291   0.67453   0.00000  Uiso   1.00
N183   N     0.31055   0.25109   0.04861   0.00000  Uiso   1.00
N184   N     0.23405   0.98431   0.66867   0.00000  Uiso   1.00
C185   C     0.09434   0.10778   0.31898   0.00000  Uiso   1.00
C186   C     0.07414   0.18610   0.27979   0.00000  Uiso   1.00
C187   C     0.02297   0.19820   0.25797   0.00000  Uiso   1.00
C188   C     0.01238   0.27421   0.22290   0.00000  Uiso   1.00
C189   C     0.97505   0.38647   0.16401   0.00000  Uiso   1.00
C190   C     0.11863   0.14427   0.38289   0.00000  Uiso   1.00
C191   C     0.10486   0.12119   0.44776   0.00000  Uiso   1.00
C192   C     0.13173   0.16199   0.49948   0.00000  Uiso   1.00
C193   C     0.16350   0.20925   0.60065   0.00000  Uiso   1.00
C194   C     0.13971   0.07075   0.27817   0.00000  Uiso   1.00
C195   C     0.14367   0.98584   0.25501   0.00000  Uiso   1.00
C196   C     0.18829   0.96474   0.21857   0.00000  Uiso   1.00
C197   C     0.25278   0.89785   0.15715   0.00000  Uiso   1.00
C198   C     0.16653   0.22126   0.29547   0.00000  Uiso   1.00
C199   C     0.11336   0.24774   0.26702   0.00000  Uiso   1.00
C200   C     0.10284   0.32375   0.23196   0.00000  Uiso   1.00
C201   C     0.05166   0.33596   0.21010   0.00000  Uiso   1.00
C202   C     0.15784   0.20590   0.37012   0.00000  Uiso   1.00
C203   C     0.18474   0.24674   0.42175   0.00000  Uiso   1.00
C204   C     0.17101   0.22374   0.48669   0.00000  Uiso   1.00
C205   C     0.17892   0.13239   0.26540   0.00000  Uiso   1.00
C206   C     0.22354   0.11140   0.22899   0.00000  Uiso   1.00
C207   C     0.22757   0.02649   0.20578   0.00000  Uiso   1.00
H208   H     0.06381   0.05979   0.32893   0.00000  Uiso   1.00
H209   H     0.99263   0.15048   0.26787   0.00000  Uiso   1.00
H210   H     0.07452   0.07348   0.45763   0.00000  Uiso   1.00
H211   H     0.11332   0.93816   0.26490   0.00000  Uiso   1.00
H212   H     0.93101   0.27823   0.19457   0.00000  Uiso   1.00
H213   H     0.10369   0.11584   0.59468   0.00000  Uiso   1.00
H214   H     0.18550   0.83049   0.18827   0.00000  Uiso   1.00
H215   H     0.19706   0.26925   0.28553   0.00000  Uiso   1.00
H216   H     0.13320   0.37144   0.22209   0.00000  Uiso   1.00
H217   H     0.21508   0.29443   0.41185   0.00000  Uiso   1.00
H218   H     0.25388   0.15912   0.21912   0.00000  Uiso   1.00
H219   H     0.04509   0.45757   0.15741   0.00000  Uiso   1.00
H220   H     0.21777   0.29518   0.55753   0.00000  Uiso   1.00
H221   H     0.29959   0.00983   0.15112   0.00000  Uiso   1.00
O222   O     0.94363   0.43136   0.13506   0.00000  Uiso   1.00
O223   O     0.17018   0.21829   0.65999   0.00000  Uiso   1.00
O224   O     0.27752   0.84393   0.12679   0.00000  Uiso   1.00
N225   N     0.96662   0.30641   0.19452   0.00000  Uiso   1.00
N226   N     0.12806   0.15459   0.56860   0.00000  Uiso   1.00
N227   N     0.20456   0.88781   0.18866   0.00000  Uiso   1.00
N228   N     0.02801   0.40291   0.17453   0.00000  Uiso   1.00
N229   N     0.18945   0.25109   0.54861   0.00000  Uiso   1.00
N230   N     0.26595   0.98431   0.16867   0.00000  Uiso   1.00
C231   C     0.09434   0.60778   0.81898   0.00000  Uiso   1.00
C232   C     0.07414   0.68610   0.77979   0.00000  Uiso   1.00
C233   C     0.02297   0.69820   0.75797   0.00000  Uiso   1.00
C234   C     0.01238   0.77421   0.72290   0.00000  Uiso   1.00
C235   C     0.97505   0.88647   0.66401   0.00000  Uiso   1.00
C236   C     0.11863   0.64427   0.88289   0.00000  Uiso   1.00
C237   C     0.10486   0.62119   0.94776   0.00000  Uiso   1.00
C238   C     0.13173   0.66199   0.99948   0.00000  Uiso   1.00
C239   C     0.16350   0.70925   0.10065   0.00000  Uiso   1.00
C240   C     0.13971   0.57075   0.77817   0.00000  Uiso   1.00
C241   C     0.14367   0.48584   0.75501   0.00000  Uiso   1.00
C242   C     0.18829   0.46474   0.71857   0.00000  Uiso   1.00
C243   C     0.25278   0.39785   0.65715   0.00000  Uiso   1.00
C244   C     0.16653   0.72126   0.79547   0.00000  Uiso   1.00
C245   C     0.11336   0.74774   0.76702   0.00000  Uiso   1.00
C246   C     0.10284   0.82375   0.73196   0.00000  Uiso   1.00
C247   C     0.05166   0.83596   0.71010   0.00000  Uiso   1.00
C248   C     0.15784   0.70590   0.87012   0.00000  Uiso   1.00
C249   C     0.18474   0.74674   0.92175   0.00000  Uiso   1.00
C250   C     0.17101   0.72374   0.98669   0.00000  Uiso   1.00
C251   C     0.17892   0.63239   0.76540   0.00000  Uiso   1.00
C252   C     0.22354   0.61140   0.72899   0.00000  Uiso   1.00
C253   C     0.22757   0.52649   0.70578   0.00000  Uiso   1.00
H254   H     0.06381   0.55979   0.82893   0.00000  Uiso   1.00
H255   H     0.99263   0.65048   0.76787   0.00000  Uiso   1.00
H256   H     0.07452   0.57348   0.95763   0.00000  Uiso   1.00
H257   H     0.11332   0.43816   0.76490   0.00000  Uiso   1.00
H258   H     0.93101   0.77823   0.69457   0.00000  Uiso   1.00
H259   H     0.10369   0.61584   0.09468   0.00000  Uiso   1.00
H260   H     0.18550   0.33049   0.68827   0.00000  Uiso   1.00
H261   H     0.19706   0.76925   0.78553   0.00000  Uiso   1.00
H262   H     0.13320   0.87144   0.72209   0.00000  Uiso   1.00
H263   H     0.21508   0.79443   0.91185   0.00000  Uiso   1.00
H264   H     0.25388   0.65912   0.71912   0.00000  Uiso   1.00
H265   H     0.04509   0.95757   0.65741   0.00000  Uiso   1.00
H266   H     0.21777   0.79518   0.05753   0.00000  Uiso   1.00
H267   H     0.29959   0.50983   0.65112   0.00000  Uiso   1.00
O268   O     0.94363   0.93136   0.63506   0.00000  Uiso   1.00
O269   O     0.17018   0.71829   0.15999   0.00000  Uiso   1.00
O270   O     0.27752   0.34393   0.62679   0.00000  Uiso   1.00
N271   N     0.96662   0.80641   0.69452   0.00000  Uiso   1.00
N272   N     0.12806   0.65459   0.06860   0.00000  Uiso   1.00
N273   N     0.20456   0.38781   0.68866   0.00000  Uiso   1.00
N274   N     0.02801   0.90291   0.67453   0.00000  Uiso   1.00
N275   N     0.18945   0.75109   0.04861   0.00000  Uiso   1.00
N276   N     0.26595   0.48431   0.66867   0.00000  Uiso   1.00
C277   C     0.90566   0.89222   0.31898   0.00000  Uiso   1.00
C278   C     0.92586   0.81390   0.27979   0.00000  Uiso   1.00
C279   C     0.97703   0.80180   0.25797   0.00000  Uiso   1.00
C280   C     0.98762   0.72579   0.22290   0.00000  Uiso   1.00
C281   C     0.02495   0.61353   0.16401   0.00000  Uiso   1.00
C282   C     0.88137   0.85573   0.38289   0.00000  Uiso   1.00
C283   C     0.89514   0.87881   0.44776   0.00000  Uiso   1.00
C284   C     0.86827   0.83801   0.49948   0.00000  Uiso   1.00
C285   C     0.83650   0.79075   0.60065   0.00000  Uiso   1.00
C286   C     0.86029   0.92925   0.27817   0.00000  Uiso   1.00
C287   C     0.85633   0.01416   0.25501   0.00000  Uiso   1.00
C288   C     0.81171   0.03526   0.21857   0.00000  Uiso   1.00
C289   C     0.74722   0.10215   0.15715   0.00000  Uiso   1.00
C290   C     0.83347   0.77874   0.29547   0.00000  Uiso   1.00
C291   C     0.88664   0.75226   0.26702   0.00000  Uiso   1.00
C292   C     0.89716   0.67625   0.23196   0.00000  Uiso   1.00
C293   C     0.94834   0.66404   0.21010   0.00000  Uiso   1.00
C294   C     0.84216   0.79410   0.37012   0.00000  Uiso   1.00
C295   C     0.81526   0.75326   0.42175   0.00000  Uiso   1.00
C296   C     0.82899   0.77626   0.48669   0.00000  Uiso   1.00
C297   C     0.82108   0.86761   0.26540   0.00000  Uiso   1.00
C298   C     0.77646   0.88860   0.22899   0.00000  Uiso   1.00
C299   C     0.77243   0.97351   0.20578   0.00000  Uiso   1.00
H300   H     0.93619   0.94021   0.32893   0.00000  Uiso   1.00
H301   H     0.00737   0.84952   0.26787   0.00000  Uiso   1.00
H302   H     0.92548   0.92652   0.45763   0.00000  Uiso   1.00
H303   H     0.88668   0.06184   0.26490   0.00000  Uiso   1.00
H304   H     0.06899   0.72177   0.19457   0.00000  Uiso   1.00
H305   H     0.89631   0.88416   0.59468   0.00000  Uiso   1.00
H306   H     0.81450   0.16951   0.18827   0.00000  Uiso   1.00
H307   H     0.80294   0.73075   0.28553   0.00000  Uiso   1.00
H308   H     0.86680   0.62856   0.22209   0.00000  Uiso   1.00
H309   H     0.78492   0.70557   0.41185   0.00000  Uiso   1.00
H310   H     0.74612   0.84088   0.21912   0.00000  Uiso   1.00
H311   H     0.95491   0.54243   0.15741   0.00000  Uiso   1.00
H312   H     0.78223   0.70482   0.55753   0.00000  Uiso   1.00
H313   H     0.70041   0.99017   0.15112   0.00000  Uiso   1.00
O314   O     0.05637   0.56864   0.13506   0.00000  Uiso   1.00
O315   O     0.82982   0.78171   0.65999   0.00000  Uiso   1.00
O316   O     0.72248   0.15607   0.12679   0.00000  Uiso   1.00
N317   N     0.03338   0.69359   0.19452   0.00000  Uiso   1.00
N318   N     0.87194   0.84541   0.56860   0.00000  Uiso   1.00
N319   N     0.79544   0.11219   0.18866   0.00000  Uiso   1.00
N320   N     0.97199   0.59709   0.17453   0.00000  Uiso   1.00
N321   N     0.81055   0.74891   0.54861   0.00000  Uiso   1.00
N322   N     0.73405   0.01569   0.16867   0.00000  Uiso   1.00
C323   C     0.90566   0.39222   0.81898   0.00000  Uiso   1.00
C324   C     0.92586   0.31390   0.77979   0.00000  Uiso   1.00
C325   C     0.97703   0.30180   0.75797   0.00000  Uiso   1.00
C326   C     0.98762   0.22579   0.72290   0.00000  Uiso   1.00
C327   C     0.02495   0.11353   0.66401   0.00000  Uiso   1.00
C328   C     0.88137   0.35573   0.88289   0.00000  Uiso   1.00
C329   C     0.89514   0.37881   0.94776   0.00000  Uiso   1.00
C330   C     0.86827   0.33801   0.99948   0.00000  Uiso   1.00
C331   C     0.83650   0.29075   0.10065   0.00000  Uiso   1.00
C332   C     0.86029   0.42925   0.77817   0.00000  Uiso   1.00
C333   C     0.85633   0.51416   0.75501   0.00000  Uiso   1.00
C334   C     0.81171   0.53526   0.71857   0.00000  Uiso   1.00
C335   C     0.74722   0.60215   0.65715   0.00000  Uiso   1.00
C336   C     0.83347   0.27874   0.79547   0.00000  Uiso   1.00
C337   C     0.88664   0.25226   0.76702   0.00000  Uiso   1.00
C338   C     0.89716   0.17625   0.73196   0.00000  Uiso   1.00
C339   C     0.94834   0.16404   0.71010   0.00000  Uiso   1.00
C340   C     0.84216   0.29410   0.87012   0.00000  Uiso   1.00
C341   C     0.81526   0.25326   0.92175   0.00000  Uiso   1.00
C342   C     0.82899   0.27626   0.98669   0.00000  Uiso   1.00
C343   C     0.82108   0.36761   0.76540   0.00000  Uiso   1.00
C344   C     0.77646   0.38860   0.72899   0.00000  Uiso   1.00
C345   C     0.77243   0.47351   0.70578   0.00000  Uiso   1.00
H346   H     0.93619   0.44021   0.82893   0.00000  Uiso   1.00
H347   H     0.00737   0.34952   0.76787   0.00000  Uiso   1.00
H348   H     0.92548   0.42652   0.95763   0.00000  Uiso   1.00
H349   H     0.88668   0.56184   0.76490   0.00000  Uiso   1.00
H350   H     0.06899   0.22177   0.69457   0.00000  Uiso   1.00
H351   H     0.89631   0.38416   0.09468   0.00000  Uiso   1.00
H352   H     0.81450   0.66951   0.68827   0.00000  Uiso   1.00
H353   H     0.80294   0.23075   0.78553   0.00000  Uiso   1.00
H354   H     0.86680   0.12856   0.72209   0.00000  Uiso   1.00
H355   H     0.78492   0.20557   0.91185   0.00000  Uiso   1.00
H356   H     0.74612   0.34088   0.71912   0.00000  Uiso   1.00
H357   H     0.95491   0.04243   0.65741   0.00000  Uiso   1.00
H358   H     0.78223   0.20482   0.05753   0.00000  Uiso   1.00
H359   H     0.70041   0.49017   0.65112   0.00000  Uiso   1.00
O360   O     0.05637   0.06864   0.63506   0.00000  Uiso   1.00
O361   O     0.82982   0.28171   0.15999   0.00000  Uiso   1.00
O362   O     0.72248   0.65607   0.62679   0.00000  Uiso   1.00
N363   N     0.03338   0.19359   0.69452   0.00000  Uiso   1.00
N364   N     0.87194   0.34541   0.06860   0.00000  Uiso   1.00
N365   N     0.79544   0.61219   0.68866   0.00000  Uiso   1.00
N366   N     0.97199   0.09709   0.67453   0.00000  Uiso   1.00
N367   N     0.81055   0.24891   0.04861   0.00000  Uiso   1.00
N368   N     0.73405   0.51569   0.66867   0.00000  Uiso   1.00
