data_job_05182
_audit_creation_date              2018-12-19
_audit_creation_method            'Materials Studio'
_symmetry_space_group_name_H-M    'P1'
_symmetry_Int_Tables_number       1
_symmetry_cell_setting            triclinic
loop_
_symmetry_equiv_pos_as_xyz
  x,y,z
_cell_length_a                    23.1019
_cell_length_b                    10.3170
_cell_length_c                    14.0185
_cell_angle_alpha                 90.0000
_cell_angle_beta                  124.6680
_cell_angle_gamma                 90.0000
loop_
_atom_site_label
_atom_site_type_symbol
_atom_site_fract_x
_atom_site_fract_y
_atom_site_fract_z
_atom_site_U_iso_or_equiv
_atom_site_adp_type
_atom_site_occupancy
C1     C     0.31688   0.09742   0.84527   0.00000  Uiso   1.00
C2     C     0.30742   0.99121   0.76184   0.00000  Uiso   1.00
C3     C     0.30908   0.85882   0.78080   0.00000  Uiso   1.00
C4     C     0.29933   0.77748   0.69388   0.00000  Uiso   1.00
C5     C     0.28635   0.60505   0.57991   0.00000  Uiso   1.00
C6     C     0.37792   0.18092   0.86766   0.00000  Uiso   1.00
C7     C     0.43884   0.20806   0.97560   0.00000  Uiso   1.00
C8     C     0.48843   0.28644   0.97775   0.00000  Uiso   1.00
C9     C     0.58488   0.40862   0.02808   0.00000  Uiso   1.00
C10    C     0.25141   0.18245   0.77740   0.00000  Uiso   1.00
C11    C     0.20598   0.21092   0.80945   0.00000  Uiso   1.00
C12    C     0.14907   0.29061   0.73562   0.00000  Uiso   1.00
C13    C     0.04910   0.41517   0.64580   0.00000  Uiso   1.00
C14    C     0.29660   0.18837   0.65717   0.00000  Uiso   1.00
C15    C     0.29641   0.04061   0.65968   0.00000  Uiso   1.00
C16    C     0.28665   0.95945   0.57270   0.00000  Uiso   1.00
C17    C     0.28829   0.82697   0.59152   0.00000  Uiso   1.00
C18    C     0.36691   0.23033   0.76550   0.00000  Uiso   1.00
C19    C     0.41641   0.30869   0.76749   0.00000  Uiso   1.00
C20    C     0.47740   0.33594   0.87540   0.00000  Uiso   1.00
C21    C     0.24040   0.23186   0.67523   0.00000  Uiso   1.00
C22    C     0.18355   0.31154   0.60134   0.00000  Uiso   1.00
C23    C     0.13804   0.34011   0.63327   0.00000  Uiso   1.00
H24    H     0.32546   0.05896   0.92481   0.00000  Uiso   1.00
H25    H     0.31761   0.82063   0.85988   0.00000  Uiso   1.00
H26    H     0.44735   0.16983   0.05465   0.00000  Uiso   1.00
H27    H     0.21452   0.17267   0.88852   0.00000  Uiso   1.00
H28    H     0.30409   0.57818   0.74287   0.00000  Uiso   1.00
H29    H     0.57763   0.31452   0.15354   0.00000  Uiso   1.00
H30    H     0.08667   0.32052   0.80323   0.00000  Uiso   1.00
H31    H     0.28803   0.22684   0.57763   0.00000  Uiso   1.00
H32    H     0.27813   0.99771   0.49365   0.00000  Uiso   1.00
H33    H     0.40787   0.34691   0.68842   0.00000  Uiso   1.00
H34    H     0.17504   0.34975   0.52229   0.00000  Uiso   1.00
H35    H     0.27204   0.72191   0.44562   0.00000  Uiso   1.00
H36    H     0.54559   0.45825   0.85629   0.00000  Uiso   1.00
H37    H     0.05463   0.46425   0.50598   0.00000  Uiso   1.00
O38    O     0.28225   0.49629   0.54528   0.00000  Uiso   1.00
O39    O     0.64112   0.46235   0.08406   0.00000  Uiso   1.00
O40    O     0.99700   0.47022   0.62446   0.00000  Uiso   1.00
N41    N     0.29789   0.64345   0.68442   0.00000  Uiso   1.00
N42    N     0.55364   0.33186   0.06838   0.00000  Uiso   1.00
N43    N     0.09465   0.33750   0.74088   0.00000  Uiso   1.00
N44    N     0.28064   0.72079   0.52447   0.00000  Uiso   1.00
N45    N     0.53640   0.40920   0.90843   0.00000  Uiso   1.00
N46    N     0.07741   0.41484   0.58093   0.00000  Uiso   1.00
C47    C     0.68312   0.59742   0.65473   0.00000  Uiso   1.00
C48    C     0.69258   0.49121   0.73816   0.00000  Uiso   1.00
C49    C     0.69092   0.35882   0.71920   0.00000  Uiso   1.00
C50    C     0.70067   0.27748   0.80612   0.00000  Uiso   1.00
C51    C     0.71365   0.10505   0.92009   0.00000  Uiso   1.00
C52    C     0.62208   0.68092   0.63234   0.00000  Uiso   1.00
C53    C     0.56116   0.70806   0.52440   0.00000  Uiso   1.00
C54    C     0.51157   0.78644   0.52225   0.00000  Uiso   1.00
C55    C     0.41512   0.90862   0.47192   0.00000  Uiso   1.00
C56    C     0.74859   0.68245   0.72260   0.00000  Uiso   1.00
C57    C     0.79402   0.71092   0.69055   0.00000  Uiso   1.00
C58    C     0.85093   0.79061   0.76438   0.00000  Uiso   1.00
C59    C     0.95090   0.91517   0.85420   0.00000  Uiso   1.00
C60    C     0.70340   0.68837   0.84283   0.00000  Uiso   1.00
C61    C     0.70359   0.54061   0.84032   0.00000  Uiso   1.00
C62    C     0.71335   0.45945   0.92730   0.00000  Uiso   1.00
C63    C     0.71171   0.32697   0.90848   0.00000  Uiso   1.00
C64    C     0.63309   0.73033   0.73450   0.00000  Uiso   1.00
C65    C     0.58359   0.80869   0.73251   0.00000  Uiso   1.00
C66    C     0.52260   0.83594   0.62460   0.00000  Uiso   1.00
C67    C     0.75960   0.73186   0.82477   0.00000  Uiso   1.00
C68    C     0.81645   0.81154   0.89866   0.00000  Uiso   1.00
C69    C     0.86196   0.84011   0.86673   0.00000  Uiso   1.00
H70    H     0.67454   0.55896   0.57519   0.00000  Uiso   1.00
H71    H     0.68239   0.32063   0.64012   0.00000  Uiso   1.00
H72    H     0.55265   0.66983   0.44535   0.00000  Uiso   1.00
H73    H     0.78548   0.67267   0.61148   0.00000  Uiso   1.00
H74    H     0.69591   0.07818   0.75713   0.00000  Uiso   1.00
H75    H     0.42237   0.81452   0.34646   0.00000  Uiso   1.00
H76    H     0.91333   0.82052   0.69677   0.00000  Uiso   1.00
H77    H     0.71197   0.72684   0.92237   0.00000  Uiso   1.00
H78    H     0.72187   0.49771   0.00635   0.00000  Uiso   1.00
H79    H     0.59213   0.84691   0.81158   0.00000  Uiso   1.00
H80    H     0.82496   0.84975   0.97771   0.00000  Uiso   1.00
H81    H     0.72796   0.22191   0.05438   0.00000  Uiso   1.00
H82    H     0.45441   0.95825   0.64371   0.00000  Uiso   1.00
H83    H     0.94537   0.96425   0.99402   0.00000  Uiso   1.00
O84    O     0.71775   0.99629   0.95472   0.00000  Uiso   1.00
O85    O     0.35888   0.96235   0.41594   0.00000  Uiso   1.00
O86    O     0.00300   0.97022   0.87554   0.00000  Uiso   1.00
N87    N     0.70211   0.14345   0.81558   0.00000  Uiso   1.00
N88    N     0.44636   0.83186   0.43162   0.00000  Uiso   1.00
N89    N     0.90535   0.83750   0.75912   0.00000  Uiso   1.00
N90    N     0.71936   0.22079   0.97553   0.00000  Uiso   1.00
N91    N     0.46360   0.90920   0.59157   0.00000  Uiso   1.00
N92    N     0.92259   0.91484   0.91907   0.00000  Uiso   1.00
C93    C     0.68312   0.90258   0.15473   0.00000  Uiso   1.00
C94    C     0.69258   0.00879   0.23816   0.00000  Uiso   1.00
C95    C     0.69092   0.14118   0.21920   0.00000  Uiso   1.00
C96    C     0.70067   0.22252   0.30612   0.00000  Uiso   1.00
C97    C     0.71365   0.39495   0.42009   0.00000  Uiso   1.00
C98    C     0.62208   0.81908   0.13234   0.00000  Uiso   1.00
C99    C     0.56116   0.79194   0.02440   0.00000  Uiso   1.00
C100   C     0.51157   0.71356   0.02225   0.00000  Uiso   1.00
C101   C     0.41512   0.59138   0.97192   0.00000  Uiso   1.00
C102   C     0.74859   0.81755   0.22260   0.00000  Uiso   1.00
C103   C     0.79402   0.78908   0.19055   0.00000  Uiso   1.00
C104   C     0.85093   0.70939   0.26438   0.00000  Uiso   1.00
C105   C     0.95090   0.58483   0.35420   0.00000  Uiso   1.00
C106   C     0.70340   0.81163   0.34283   0.00000  Uiso   1.00
C107   C     0.70359   0.95939   0.34032   0.00000  Uiso   1.00
C108   C     0.71335   0.04055   0.42730   0.00000  Uiso   1.00
C109   C     0.71171   0.17303   0.40848   0.00000  Uiso   1.00
C110   C     0.63309   0.76967   0.23450   0.00000  Uiso   1.00
C111   C     0.58359   0.69131   0.23251   0.00000  Uiso   1.00
C112   C     0.52260   0.66406   0.12460   0.00000  Uiso   1.00
C113   C     0.75960   0.76814   0.32477   0.00000  Uiso   1.00
C114   C     0.81645   0.68846   0.39866   0.00000  Uiso   1.00
C115   C     0.86196   0.65989   0.36673   0.00000  Uiso   1.00
H116   H     0.67454   0.94104   0.07519   0.00000  Uiso   1.00
H117   H     0.68239   0.17937   0.14012   0.00000  Uiso   1.00
H118   H     0.55265   0.83017   0.94535   0.00000  Uiso   1.00
H119   H     0.78548   0.82733   0.11148   0.00000  Uiso   1.00
H120   H     0.69591   0.42182   0.25713   0.00000  Uiso   1.00
H121   H     0.42237   0.68548   0.84646   0.00000  Uiso   1.00
H122   H     0.91333   0.67948   0.19677   0.00000  Uiso   1.00
H123   H     0.71197   0.77316   0.42237   0.00000  Uiso   1.00
H124   H     0.72187   0.00229   0.50635   0.00000  Uiso   1.00
H125   H     0.59213   0.65309   0.31158   0.00000  Uiso   1.00
H126   H     0.82496   0.65025   0.47771   0.00000  Uiso   1.00
H127   H     0.72796   0.27809   0.55438   0.00000  Uiso   1.00
H128   H     0.45441   0.54175   0.14371   0.00000  Uiso   1.00
H129   H     0.94537   0.53575   0.49402   0.00000  Uiso   1.00
O130   O     0.71775   0.50371   0.45472   0.00000  Uiso   1.00
O131   O     0.35888   0.53765   0.91594   0.00000  Uiso   1.00
O132   O     0.00300   0.52978   0.37554   0.00000  Uiso   1.00
N133   N     0.70211   0.35655   0.31558   0.00000  Uiso   1.00
N134   N     0.44636   0.66814   0.93162   0.00000  Uiso   1.00
N135   N     0.90535   0.66250   0.25912   0.00000  Uiso   1.00
N136   N     0.71936   0.27921   0.47553   0.00000  Uiso   1.00
N137   N     0.46360   0.59080   0.09157   0.00000  Uiso   1.00
N138   N     0.92259   0.58516   0.41907   0.00000  Uiso   1.00
C139   C     0.31688   0.40258   0.34527   0.00000  Uiso   1.00
C140   C     0.30742   0.50879   0.26184   0.00000  Uiso   1.00
C141   C     0.30908   0.64118   0.28080   0.00000  Uiso   1.00
C142   C     0.29933   0.72252   0.19388   0.00000  Uiso   1.00
C143   C     0.28635   0.89495   0.07991   0.00000  Uiso   1.00
C144   C     0.37792   0.31908   0.36766   0.00000  Uiso   1.00
C145   C     0.43884   0.29194   0.47560   0.00000  Uiso   1.00
C146   C     0.48843   0.21356   0.47775   0.00000  Uiso   1.00
C147   C     0.58488   0.09138   0.52808   0.00000  Uiso   1.00
C148   C     0.25141   0.31755   0.27740   0.00000  Uiso   1.00
C149   C     0.20598   0.28908   0.30945   0.00000  Uiso   1.00
C150   C     0.14907   0.20939   0.23562   0.00000  Uiso   1.00
C151   C     0.04910   0.08483   0.14580   0.00000  Uiso   1.00
C152   C     0.29660   0.31163   0.15717   0.00000  Uiso   1.00
C153   C     0.29641   0.45939   0.15968   0.00000  Uiso   1.00
C154   C     0.28665   0.54055   0.07270   0.00000  Uiso   1.00
C155   C     0.28829   0.67303   0.09152   0.00000  Uiso   1.00
C156   C     0.36691   0.26967   0.26550   0.00000  Uiso   1.00
C157   C     0.41641   0.19131   0.26749   0.00000  Uiso   1.00
C158   C     0.47740   0.16406   0.37540   0.00000  Uiso   1.00
C159   C     0.24040   0.26814   0.17523   0.00000  Uiso   1.00
C160   C     0.18355   0.18846   0.10134   0.00000  Uiso   1.00
C161   C     0.13804   0.15989   0.13327   0.00000  Uiso   1.00
H162   H     0.32546   0.44104   0.42481   0.00000  Uiso   1.00
H163   H     0.31761   0.67937   0.35988   0.00000  Uiso   1.00
H164   H     0.44735   0.33017   0.55465   0.00000  Uiso   1.00
H165   H     0.21452   0.32733   0.38852   0.00000  Uiso   1.00
H166   H     0.30409   0.92182   0.24287   0.00000  Uiso   1.00
H167   H     0.57763   0.18548   0.65354   0.00000  Uiso   1.00
H168   H     0.08667   0.17948   0.30323   0.00000  Uiso   1.00
H169   H     0.28803   0.27316   0.07763   0.00000  Uiso   1.00
H170   H     0.27813   0.50229   0.99365   0.00000  Uiso   1.00
H171   H     0.40787   0.15309   0.18842   0.00000  Uiso   1.00
H172   H     0.17504   0.15025   0.02229   0.00000  Uiso   1.00
H173   H     0.27204   0.77809   0.94562   0.00000  Uiso   1.00
H174   H     0.54559   0.04175   0.35629   0.00000  Uiso   1.00
H175   H     0.05463   0.03575   0.00598   0.00000  Uiso   1.00
O176   O     0.28225   0.00371   0.04528   0.00000  Uiso   1.00
O177   O     0.64112   0.03765   0.58406   0.00000  Uiso   1.00
O178   O     0.99700   0.02978   0.12446   0.00000  Uiso   1.00
N179   N     0.29789   0.85655   0.18442   0.00000  Uiso   1.00
N180   N     0.55364   0.16814   0.56838   0.00000  Uiso   1.00
N181   N     0.09465   0.16250   0.24088   0.00000  Uiso   1.00
N182   N     0.28064   0.77921   0.02447   0.00000  Uiso   1.00
N183   N     0.53640   0.09080   0.40843   0.00000  Uiso   1.00
N184   N     0.07741   0.08516   0.08093   0.00000  Uiso   1.00
