data_job_01180
_audit_creation_date              2018-12-19
_audit_creation_method            'Materials Studio'
_symmetry_space_group_name_H-M    'P1'
_symmetry_Int_Tables_number       1
_symmetry_cell_setting            triclinic
loop_
_symmetry_equiv_pos_as_xyz
  x,y,z
_cell_length_a                    12.2105
_cell_length_b                    21.3422
_cell_length_c                    17.0258
_cell_angle_alpha                 90.0000
_cell_angle_beta                  108.2650
_cell_angle_gamma                 90.0000
loop_
_atom_site_label
_atom_site_type_symbol
_atom_site_fract_x
_atom_site_fract_y
_atom_site_fract_z
_atom_site_U_iso_or_equiv
_atom_site_adp_type
_atom_site_occupancy
C1     C     0.42137   0.68207   0.48723   0.00000  Uiso   1.00
C2     C     0.47075   0.64269   0.43158   0.00000  Uiso   1.00
C3     C     0.57326   0.60919   0.45698   0.00000  Uiso   1.00
C4     C     0.60341   0.57612   0.39660   0.00000  Uiso   1.00
C5     C     0.69075   0.51494   0.32278   0.00000  Uiso   1.00
C6     C     0.40434   0.74769   0.44992   0.00000  Uiso   1.00
C7     C     0.45100   0.80247   0.49074   0.00000  Uiso   1.00
C8     C     0.42522   0.85779   0.44579   0.00000  Uiso   1.00
C9     C     0.40939   0.95962   0.40046   0.00000  Uiso   1.00
C10    C     0.30080   0.65642   0.47575   0.00000  Uiso   1.00
C11    C     0.26039   0.63446   0.53829   0.00000  Uiso   1.00
C12    C     0.14742   0.61295   0.51508   0.00000  Uiso   1.00
C13    C     0.97082   0.57306   0.50985   0.00000  Uiso   1.00
C14    C     0.29261   0.68293   0.33483   0.00000  Uiso   1.00
C15    C     0.40081   0.64316   0.34881   0.00000  Uiso   1.00
C16    C     0.43080   0.61013   0.28837   0.00000  Uiso   1.00
C17    C     0.53335   0.57659   0.31367   0.00000  Uiso   1.00
C18    C     0.33440   0.74816   0.36714   0.00000  Uiso   1.00
C19    C     0.30854   0.80341   0.32213   0.00000  Uiso   1.00
C20    C     0.35516   0.85826   0.36287   0.00000  Uiso   1.00
C21    C     0.23086   0.65688   0.39297   0.00000  Uiso   1.00
C22    C     0.11793   0.63540   0.36967   0.00000  Uiso   1.00
C23    C     0.07736   0.61342   0.43216   0.00000  Uiso   1.00
H24    H     0.47582   0.68172   0.55167   0.00000  Uiso   1.00
H25    H     0.62737   0.60885   0.52105   0.00000  Uiso   1.00
H26    H     0.50511   0.80210   0.55480   0.00000  Uiso   1.00
H27    H     0.31453   0.63411   0.60233   0.00000  Uiso   1.00
H28    H     0.76457   0.52829   0.45058   0.00000  Uiso   1.00
H29    H     0.50675   0.93576   0.52176   0.00000  Uiso   1.00
H30    H     0.10487   0.58154   0.62200   0.00000  Uiso   1.00
H31    H     0.23816   0.68329   0.27038   0.00000  Uiso   1.00
H32    H     0.37667   0.61050   0.22432   0.00000  Uiso   1.00
H33    H     0.25441   0.80375   0.25807   0.00000  Uiso   1.00
H34    H     0.06383   0.63577   0.30561   0.00000  Uiso   1.00
H35    H     0.56109   0.52963   0.20974   0.00000  Uiso   1.00
H36    H     0.30327   0.93711   0.28092   0.00000  Uiso   1.00
H37    H     0.90140   0.58288   0.38116   0.00000  Uiso   1.00
O38    O     0.75825   0.48107   0.30493   0.00000  Uiso   1.00
O39    O     0.41999   0.01566   0.39832   0.00000  Uiso   1.00
O40    O     0.89274   0.55092   0.52983   0.00000  Uiso   1.00
N41    N     0.69766   0.53858   0.40022   0.00000  Uiso   1.00
N42    N     0.45663   0.91955   0.46677   0.00000  Uiso   1.00
N43    N     0.08090   0.58839   0.56049   0.00000  Uiso   1.00
N44    N     0.58817   0.53930   0.27063   0.00000  Uiso   1.00
N45    N     0.34714   0.92027   0.33718   0.00000  Uiso   1.00
N46    N     0.97141   0.58911   0.43090   0.00000  Uiso   1.00
C47    C     0.57863   0.18207   0.01277   0.00000  Uiso   1.00
C48    C     0.52925   0.14269   0.06842   0.00000  Uiso   1.00
C49    C     0.42674   0.10919   0.04302   0.00000  Uiso   1.00
C50    C     0.39659   0.07612   0.10340   0.00000  Uiso   1.00
C51    C     0.30925   0.01494   0.17722   0.00000  Uiso   1.00
C52    C     0.59566   0.24769   0.05008   0.00000  Uiso   1.00
C53    C     0.54900   0.30247   0.00926   0.00000  Uiso   1.00
C54    C     0.57478   0.35779   0.05421   0.00000  Uiso   1.00
C55    C     0.59061   0.45962   0.09954   0.00000  Uiso   1.00
C56    C     0.69920   0.15642   0.02425   0.00000  Uiso   1.00
C57    C     0.73961   0.13446   0.96171   0.00000  Uiso   1.00
C58    C     0.85258   0.11295   0.98492   0.00000  Uiso   1.00
C59    C     0.02918   0.07306   0.99015   0.00000  Uiso   1.00
C60    C     0.70739   0.18293   0.16517   0.00000  Uiso   1.00
C61    C     0.59919   0.14316   0.15119   0.00000  Uiso   1.00
C62    C     0.56920   0.11013   0.21163   0.00000  Uiso   1.00
C63    C     0.46665   0.07659   0.18633   0.00000  Uiso   1.00
C64    C     0.66560   0.24816   0.13286   0.00000  Uiso   1.00
C65    C     0.69146   0.30341   0.17787   0.00000  Uiso   1.00
C66    C     0.64484   0.35826   0.13713   0.00000  Uiso   1.00
C67    C     0.76914   0.15688   0.10703   0.00000  Uiso   1.00
C68    C     0.88207   0.13540   0.13033   0.00000  Uiso   1.00
C69    C     0.92264   0.11342   0.06784   0.00000  Uiso   1.00
H70    H     0.52418   0.18172   0.94833   0.00000  Uiso   1.00
H71    H     0.37263   0.10885   0.97895   0.00000  Uiso   1.00
H72    H     0.49489   0.30210   0.94520   0.00000  Uiso   1.00
H73    H     0.68547   0.13411   0.89767   0.00000  Uiso   1.00
H74    H     0.23543   0.02829   0.04942   0.00000  Uiso   1.00
H75    H     0.49325   0.43576   0.97824   0.00000  Uiso   1.00
H76    H     0.89513   0.08154   0.87800   0.00000  Uiso   1.00
H77    H     0.76184   0.18329   0.22962   0.00000  Uiso   1.00
H78    H     0.62333   0.11050   0.27568   0.00000  Uiso   1.00
H79    H     0.74559   0.30375   0.24193   0.00000  Uiso   1.00
H80    H     0.93617   0.13577   0.19439   0.00000  Uiso   1.00
H81    H     0.43891   0.02963   0.29026   0.00000  Uiso   1.00
H82    H     0.69673   0.43711   0.21908   0.00000  Uiso   1.00
H83    H     0.09860   0.08288   0.11884   0.00000  Uiso   1.00
O84    O     0.24175   0.98107   0.19507   0.00000  Uiso   1.00
O85    O     0.58001   0.51566   0.10168   0.00000  Uiso   1.00
O86    O     0.10726   0.05092   0.97017   0.00000  Uiso   1.00
N87    N     0.30234   0.03858   0.09978   0.00000  Uiso   1.00
N88    N     0.54337   0.41955   0.03323   0.00000  Uiso   1.00
N89    N     0.91910   0.08839   0.93951   0.00000  Uiso   1.00
N90    N     0.41183   0.03930   0.22937   0.00000  Uiso   1.00
N91    N     0.65286   0.42027   0.16282   0.00000  Uiso   1.00
N92    N     0.02859   0.08911   0.06910   0.00000  Uiso   1.00
C93    C     0.57863   0.31793   0.51277   0.00000  Uiso   1.00
C94    C     0.52925   0.35731   0.56842   0.00000  Uiso   1.00
C95    C     0.42674   0.39081   0.54302   0.00000  Uiso   1.00
C96    C     0.39659   0.42388   0.60340   0.00000  Uiso   1.00
C97    C     0.30925   0.48506   0.67722   0.00000  Uiso   1.00
C98    C     0.59566   0.25231   0.55008   0.00000  Uiso   1.00
C99    C     0.54900   0.19753   0.50926   0.00000  Uiso   1.00
C100   C     0.57478   0.14221   0.55421   0.00000  Uiso   1.00
C101   C     0.59061   0.04038   0.59954   0.00000  Uiso   1.00
C102   C     0.69920   0.34358   0.52425   0.00000  Uiso   1.00
C103   C     0.73961   0.36554   0.46171   0.00000  Uiso   1.00
C104   C     0.85258   0.38705   0.48492   0.00000  Uiso   1.00
C105   C     0.02918   0.42694   0.49015   0.00000  Uiso   1.00
C106   C     0.70739   0.31707   0.66517   0.00000  Uiso   1.00
C107   C     0.59919   0.35684   0.65119   0.00000  Uiso   1.00
C108   C     0.56920   0.38987   0.71163   0.00000  Uiso   1.00
C109   C     0.46665   0.42341   0.68633   0.00000  Uiso   1.00
C110   C     0.66560   0.25184   0.63286   0.00000  Uiso   1.00
C111   C     0.69146   0.19659   0.67787   0.00000  Uiso   1.00
C112   C     0.64484   0.14174   0.63713   0.00000  Uiso   1.00
C113   C     0.76914   0.34312   0.60703   0.00000  Uiso   1.00
C114   C     0.88207   0.36460   0.63033   0.00000  Uiso   1.00
C115   C     0.92264   0.38658   0.56784   0.00000  Uiso   1.00
H116   H     0.52418   0.31828   0.44833   0.00000  Uiso   1.00
H117   H     0.37263   0.39115   0.47895   0.00000  Uiso   1.00
H118   H     0.49489   0.19790   0.44520   0.00000  Uiso   1.00
H119   H     0.68547   0.36589   0.39767   0.00000  Uiso   1.00
H120   H     0.23543   0.47171   0.54942   0.00000  Uiso   1.00
H121   H     0.49325   0.06424   0.47824   0.00000  Uiso   1.00
H122   H     0.89513   0.41846   0.37800   0.00000  Uiso   1.00
H123   H     0.76184   0.31671   0.72962   0.00000  Uiso   1.00
H124   H     0.62333   0.38950   0.77568   0.00000  Uiso   1.00
H125   H     0.74559   0.19625   0.74193   0.00000  Uiso   1.00
H126   H     0.93617   0.36423   0.69439   0.00000  Uiso   1.00
H127   H     0.43891   0.47037   0.79026   0.00000  Uiso   1.00
H128   H     0.69673   0.06289   0.71908   0.00000  Uiso   1.00
H129   H     0.09860   0.41712   0.61884   0.00000  Uiso   1.00
O130   O     0.24175   0.51893   0.69507   0.00000  Uiso   1.00
O131   O     0.58001   0.98434   0.60168   0.00000  Uiso   1.00
O132   O     0.10726   0.44908   0.47017   0.00000  Uiso   1.00
N133   N     0.30234   0.46142   0.59978   0.00000  Uiso   1.00
N134   N     0.54337   0.08045   0.53323   0.00000  Uiso   1.00
N135   N     0.91910   0.41161   0.43951   0.00000  Uiso   1.00
N136   N     0.41183   0.46070   0.72937   0.00000  Uiso   1.00
N137   N     0.65286   0.07973   0.66282   0.00000  Uiso   1.00
N138   N     0.02859   0.41089   0.56910   0.00000  Uiso   1.00
C139   C     0.42137   0.81793   0.98723   0.00000  Uiso   1.00
C140   C     0.47075   0.85731   0.93158   0.00000  Uiso   1.00
C141   C     0.57326   0.89081   0.95698   0.00000  Uiso   1.00
C142   C     0.60341   0.92388   0.89660   0.00000  Uiso   1.00
C143   C     0.69075   0.98506   0.82278   0.00000  Uiso   1.00
C144   C     0.40434   0.75231   0.94992   0.00000  Uiso   1.00
C145   C     0.45100   0.69753   0.99074   0.00000  Uiso   1.00
C146   C     0.42522   0.64221   0.94579   0.00000  Uiso   1.00
C147   C     0.40939   0.54038   0.90046   0.00000  Uiso   1.00
C148   C     0.30080   0.84358   0.97575   0.00000  Uiso   1.00
C149   C     0.26039   0.86554   0.03829   0.00000  Uiso   1.00
C150   C     0.14742   0.88705   0.01508   0.00000  Uiso   1.00
C151   C     0.97082   0.92694   0.00985   0.00000  Uiso   1.00
C152   C     0.29261   0.81707   0.83483   0.00000  Uiso   1.00
C153   C     0.40081   0.85684   0.84881   0.00000  Uiso   1.00
C154   C     0.43080   0.88987   0.78837   0.00000  Uiso   1.00
C155   C     0.53335   0.92341   0.81367   0.00000  Uiso   1.00
C156   C     0.33440   0.75184   0.86714   0.00000  Uiso   1.00
C157   C     0.30854   0.69659   0.82213   0.00000  Uiso   1.00
C158   C     0.35516   0.64174   0.86287   0.00000  Uiso   1.00
C159   C     0.23086   0.84312   0.89297   0.00000  Uiso   1.00
C160   C     0.11793   0.86460   0.86967   0.00000  Uiso   1.00
C161   C     0.07736   0.88658   0.93216   0.00000  Uiso   1.00
H162   H     0.47582   0.81828   0.05167   0.00000  Uiso   1.00
H163   H     0.62737   0.89115   0.02105   0.00000  Uiso   1.00
H164   H     0.50511   0.69790   0.05480   0.00000  Uiso   1.00
H165   H     0.31453   0.86589   0.10233   0.00000  Uiso   1.00
H166   H     0.76457   0.97171   0.95058   0.00000  Uiso   1.00
H167   H     0.50675   0.56424   0.02176   0.00000  Uiso   1.00
H168   H     0.10487   0.91846   0.12200   0.00000  Uiso   1.00
H169   H     0.23816   0.81671   0.77038   0.00000  Uiso   1.00
H170   H     0.37667   0.88950   0.72432   0.00000  Uiso   1.00
H171   H     0.25441   0.69625   0.75807   0.00000  Uiso   1.00
H172   H     0.06383   0.86423   0.80561   0.00000  Uiso   1.00
H173   H     0.56109   0.97037   0.70974   0.00000  Uiso   1.00
H174   H     0.30327   0.56289   0.78092   0.00000  Uiso   1.00
H175   H     0.90140   0.91712   0.88116   0.00000  Uiso   1.00
O176   O     0.75825   0.01893   0.80493   0.00000  Uiso   1.00
O177   O     0.41999   0.48434   0.89832   0.00000  Uiso   1.00
O178   O     0.89274   0.94908   0.02983   0.00000  Uiso   1.00
N179   N     0.69766   0.96142   0.90022   0.00000  Uiso   1.00
N180   N     0.45663   0.58045   0.96677   0.00000  Uiso   1.00
N181   N     0.08090   0.91161   0.06049   0.00000  Uiso   1.00
N182   N     0.58817   0.96070   0.77063   0.00000  Uiso   1.00
N183   N     0.34714   0.57973   0.83718   0.00000  Uiso   1.00
N184   N     0.97141   0.91089   0.93090   0.00000  Uiso   1.00
