data_job_02229
_audit_creation_date              2018-12-19
_audit_creation_method            'Materials Studio'
_symmetry_space_group_name_H-M    'P1'
_symmetry_Int_Tables_number       1
_symmetry_cell_setting            triclinic
loop_
_symmetry_equiv_pos_as_xyz
  x,y,z
_cell_length_a                    12.2905
_cell_length_b                    12.2905
_cell_length_c                    25.1846
_cell_angle_alpha                 90.0000
_cell_angle_beta                  90.0000
_cell_angle_gamma                 120.0000
loop_
_atom_site_label
_atom_site_type_symbol
_atom_site_fract_x
_atom_site_fract_y
_atom_site_fract_z
_atom_site_U_iso_or_equiv
_atom_site_adp_type
_atom_site_occupancy
C1     C     0.36340   0.82142   0.13355   0.00000  Uiso   1.00
C2     C     0.40464   0.91065   0.08621   0.00000  Uiso   1.00
C3     C     0.41473   0.87963   0.03417   0.00000  Uiso   1.00
C4     C     0.45407   0.97464   0.99660   0.00000  Uiso   1.00
C5     C     0.51387   0.09471   0.92096   0.00000  Uiso   1.00
C6     C     0.46944   0.88213   0.17409   0.00000  Uiso   1.00
C7     C     0.53399   0.82711   0.19595   0.00000  Uiso   1.00
C8     C     0.62788   0.89812   0.23238   0.00000  Uiso   1.00
C9     C     0.78821   0.97388   0.29322   0.00000  Uiso   1.00
C10    C     0.25174   0.82491   0.15806   0.00000  Uiso   1.00
C11    C     0.13325   0.72178   0.16644   0.00000  Uiso   1.00
C12    C     0.04386   0.74460   0.18938   0.00000  Uiso   1.00
C13    C     0.86618   0.73152   0.22531   0.00000  Uiso   1.00
C14    C     0.41534   0.04533   0.15939   0.00000  Uiso   1.00
C15    C     0.43285   0.03227   0.10025   0.00000  Uiso   1.00
C16    C     0.47219   0.12736   0.06275   0.00000  Uiso   1.00
C17    C     0.48233   0.09648   0.01066   0.00000  Uiso   1.00
C18    C     0.49765   0.00375   0.18813   0.00000  Uiso   1.00
C19    C     0.59145   0.07485   0.22454   0.00000  Uiso   1.00
C20    C     0.65614   0.01996   0.24644   0.00000  Uiso   1.00
C21    C     0.27995   0.94653   0.17209   0.00000  Uiso   1.00
C22    C     0.19072   0.96951   0.19502   0.00000  Uiso   1.00
C23    C     0.07212   0.86644   0.20344   0.00000  Uiso   1.00
H24    H     0.34145   0.72673   0.12263   0.00000  Uiso   1.00
H25    H     0.39290   0.78550   0.02332   0.00000  Uiso   1.00
H26    H     0.51213   0.73299   0.18509   0.00000  Uiso   1.00
H27    H     0.11146   0.62768   0.15557   0.00000  Uiso   1.00
H28    H     0.46242   0.90430   0.91942   0.00000  Uiso   1.00
H29    H     0.71381   0.79357   0.26052   0.00000  Uiso   1.00
H30    H     0.86891   0.57149   0.19829   0.00000  Uiso   1.00
H31    H     0.43731   0.14001   0.17032   0.00000  Uiso   1.00
H32    H     0.49401   0.22146   0.07363   0.00000  Uiso   1.00
H33    H     0.61325   0.16896   0.23539   0.00000  Uiso   1.00
H34    H     0.21258   0.06364   0.20588   0.00000  Uiso   1.00
H35    H     0.54450   0.25814   0.96025   0.00000  Uiso   1.00
H36    H     0.79589   0.14741   0.30135   0.00000  Uiso   1.00
H37    H     0.95099   0.92534   0.23912   0.00000  Uiso   1.00
O38    O     0.53908   0.12735   0.87537   0.00000  Uiso   1.00
O39    O     0.86887   0.98207   0.32289   0.00000  Uiso   1.00
O40    O     0.76038   0.69071   0.24124   0.00000  Uiso   1.00
N41    N     0.47393   0.97639   0.94229   0.00000  Uiso   1.00
N42    N     0.70898   0.87288   0.26120   0.00000  Uiso   1.00
N43    N     0.91908   0.66525   0.20303   0.00000  Uiso   1.00
N44    N     0.51810   0.16679   0.96426   0.00000  Uiso   1.00
N45    N     0.75314   0.06328   0.28317   0.00000  Uiso   1.00
N46    N     0.96324   0.85565   0.22500   0.00000  Uiso   1.00
C47    C     0.17858   0.54199   0.46688   0.00000  Uiso   1.00
C48    C     0.08935   0.49399   0.41954   0.00000  Uiso   1.00
C49    C     0.12037   0.53510   0.36750   0.00000  Uiso   1.00
C50    C     0.02536   0.47944   0.32994   0.00000  Uiso   1.00
C51    C     0.90529   0.41916   0.25430   0.00000  Uiso   1.00
C52    C     0.11787   0.58731   0.50743   0.00000  Uiso   1.00
C53    C     0.17289   0.70688   0.52928   0.00000  Uiso   1.00
C54    C     0.10188   0.72976   0.56571   0.00000  Uiso   1.00
C55    C     0.02612   0.81433   0.62655   0.00000  Uiso   1.00
C56    C     0.17509   0.42683   0.49139   0.00000  Uiso   1.00
C57    C     0.27822   0.41147   0.49977   0.00000  Uiso   1.00
C58    C     0.25540   0.29925   0.52271   0.00000  Uiso   1.00
C59    C     0.26848   0.13466   0.55864   0.00000  Uiso   1.00
C60    C     0.95467   0.37002   0.49272   0.00000  Uiso   1.00
C61    C     0.96773   0.40058   0.43358   0.00000  Uiso   1.00
C62    C     0.87264   0.34483   0.39609   0.00000  Uiso   1.00
C63    C     0.90352   0.38585   0.34400   0.00000  Uiso   1.00
C64    C     0.99625   0.49390   0.52146   0.00000  Uiso   1.00
C65    C     0.92515   0.51661   0.55787   0.00000  Uiso   1.00
C66    C     0.98004   0.63618   0.57977   0.00000  Uiso   1.00
C67    C     0.05347   0.33342   0.50542   0.00000  Uiso   1.00
C68    C     0.03049   0.22120   0.52836   0.00000  Uiso   1.00
C69    C     0.13356   0.20568   0.53677   0.00000  Uiso   1.00
H70    H     0.27327   0.61471   0.45596   0.00000  Uiso   1.00
H71    H     0.21450   0.60740   0.35665   0.00000  Uiso   1.00
H72    H     0.26701   0.77914   0.51842   0.00000  Uiso   1.00
H73    H     0.37232   0.48378   0.48891   0.00000  Uiso   1.00
H74    H     0.09570   0.55813   0.25275   0.00000  Uiso   1.00
H75    H     0.20643   0.92024   0.59385   0.00000  Uiso   1.00
H76    H     0.42851   0.29742   0.53163   0.00000  Uiso   1.00
H77    H     0.85999   0.29729   0.50365   0.00000  Uiso   1.00
H78    H     0.77854   0.27255   0.40696   0.00000  Uiso   1.00
H79    H     0.83104   0.44430   0.56873   0.00000  Uiso   1.00
H80    H     0.93636   0.14894   0.53921   0.00000  Uiso   1.00
H81    H     0.74186   0.28636   0.29358   0.00000  Uiso   1.00
H82    H     0.85259   0.64847   0.63469   0.00000  Uiso   1.00
H83    H     0.07466   0.02565   0.57246   0.00000  Uiso   1.00
O84    O     0.87265   0.41173   0.20870   0.00000  Uiso   1.00
O85    O     0.01793   0.88679   0.65622   0.00000  Uiso   1.00
O86    O     0.30929   0.06967   0.57458   0.00000  Uiso   1.00
N87    N     0.02361   0.49754   0.27563   0.00000  Uiso   1.00
N88    N     0.12712   0.83610   0.59453   0.00000  Uiso   1.00
N89    N     0.33475   0.25383   0.53637   0.00000  Uiso   1.00
N90    N     0.83321   0.35131   0.29760   0.00000  Uiso   1.00
N91    N     0.93672   0.68986   0.61650   0.00000  Uiso   1.00
N92    N     0.14435   0.10759   0.55834   0.00000  Uiso   1.00
C93    C     0.45801   0.63660   0.80022   0.00000  Uiso   1.00
C94    C     0.50601   0.59536   0.75287   0.00000  Uiso   1.00
C95    C     0.46490   0.58527   0.70083   0.00000  Uiso   1.00
C96    C     0.52056   0.54593   0.66327   0.00000  Uiso   1.00
C97    C     0.58084   0.48613   0.58763   0.00000  Uiso   1.00
C98    C     0.41269   0.53056   0.84076   0.00000  Uiso   1.00
C99    C     0.29312   0.46601   0.86262   0.00000  Uiso   1.00
C100   C     0.27024   0.37212   0.89905   0.00000  Uiso   1.00
C101   C     0.18567   0.21179   0.95988   0.00000  Uiso   1.00
C102   C     0.57317   0.74826   0.82472   0.00000  Uiso   1.00
C103   C     0.58853   0.86675   0.83311   0.00000  Uiso   1.00
C104   C     0.70075   0.95614   0.85604   0.00000  Uiso   1.00
C105   C     0.86534   0.13382   0.89198   0.00000  Uiso   1.00
C106   C     0.62998   0.58466   0.82606   0.00000  Uiso   1.00
C107   C     0.59942   0.56715   0.76691   0.00000  Uiso   1.00
C108   C     0.65517   0.52781   0.72942   0.00000  Uiso   1.00
C109   C     0.61415   0.51767   0.67733   0.00000  Uiso   1.00
C110   C     0.50610   0.50235   0.85480   0.00000  Uiso   1.00
C111   C     0.48339   0.40855   0.89121   0.00000  Uiso   1.00
C112   C     0.36382   0.34386   0.91311   0.00000  Uiso   1.00
C113   C     0.66658   0.72005   0.83876   0.00000  Uiso   1.00
C114   C     0.77880   0.80928   0.86169   0.00000  Uiso   1.00
C115   C     0.79432   0.92788   0.87011   0.00000  Uiso   1.00
H116   H     0.38529   0.65855   0.78929   0.00000  Uiso   1.00
H117   H     0.39260   0.60710   0.68999   0.00000  Uiso   1.00
H118   H     0.22086   0.48787   0.85175   0.00000  Uiso   1.00
H119   H     0.51622   0.88854   0.82224   0.00000  Uiso   1.00
H120   H     0.44187   0.53758   0.58608   0.00000  Uiso   1.00
H121   H     0.07976   0.28619   0.92719   0.00000  Uiso   1.00
H122   H     0.70258   0.13109   0.86496   0.00000  Uiso   1.00
H123   H     0.70271   0.56269   0.83699   0.00000  Uiso   1.00
H124   H     0.72745   0.50599   0.74029   0.00000  Uiso   1.00
H125   H     0.55570   0.38675   0.90206   0.00000  Uiso   1.00
H126   H     0.85106   0.78742   0.87255   0.00000  Uiso   1.00
H127   H     0.71364   0.45550   0.62691   0.00000  Uiso   1.00
H128   H     0.35153   0.20411   0.96802   0.00000  Uiso   1.00
H129   H     0.97435   0.04901   0.90579   0.00000  Uiso   1.00
O130   O     0.58827   0.46092   0.54203   0.00000  Uiso   1.00
O131   O     0.11321   0.13113   0.98955   0.00000  Uiso   1.00
O132   O     0.93033   0.23962   0.90791   0.00000  Uiso   1.00
N133   N     0.50246   0.52607   0.60896   0.00000  Uiso   1.00
N134   N     0.16390   0.29102   0.92786   0.00000  Uiso   1.00
N135   N     0.74617   0.08092   0.86970   0.00000  Uiso   1.00
N136   N     0.64869   0.48190   0.63093   0.00000  Uiso   1.00
N137   N     0.31014   0.24686   0.94983   0.00000  Uiso   1.00
N138   N     0.89241   0.03676   0.89167   0.00000  Uiso   1.00
C139   C     0.63660   0.17858   0.63355   0.00000  Uiso   1.00
C140   C     0.59536   0.08935   0.58621   0.00000  Uiso   1.00
C141   C     0.58527   0.12037   0.53417   0.00000  Uiso   1.00
C142   C     0.54593   0.02536   0.49660   0.00000  Uiso   1.00
C143   C     0.48613   0.90529   0.42096   0.00000  Uiso   1.00
C144   C     0.53056   0.11787   0.67409   0.00000  Uiso   1.00
C145   C     0.46601   0.17289   0.69595   0.00000  Uiso   1.00
C146   C     0.37212   0.10188   0.73238   0.00000  Uiso   1.00
C147   C     0.21179   0.02612   0.79322   0.00000  Uiso   1.00
C148   C     0.74826   0.17509   0.65806   0.00000  Uiso   1.00
C149   C     0.86675   0.27822   0.66644   0.00000  Uiso   1.00
C150   C     0.95614   0.25540   0.68938   0.00000  Uiso   1.00
C151   C     0.13382   0.26848   0.72531   0.00000  Uiso   1.00
C152   C     0.58466   0.95467   0.65939   0.00000  Uiso   1.00
C153   C     0.56715   0.96773   0.60025   0.00000  Uiso   1.00
C154   C     0.52781   0.87264   0.56275   0.00000  Uiso   1.00
C155   C     0.51767   0.90352   0.51066   0.00000  Uiso   1.00
C156   C     0.50235   0.99625   0.68813   0.00000  Uiso   1.00
C157   C     0.40855   0.92515   0.72454   0.00000  Uiso   1.00
C158   C     0.34386   0.98004   0.74644   0.00000  Uiso   1.00
C159   C     0.72005   0.05347   0.67209   0.00000  Uiso   1.00
C160   C     0.80928   0.03049   0.69502   0.00000  Uiso   1.00
C161   C     0.92788   0.13356   0.70344   0.00000  Uiso   1.00
H162   H     0.65855   0.27327   0.62263   0.00000  Uiso   1.00
H163   H     0.60710   0.21450   0.52332   0.00000  Uiso   1.00
H164   H     0.48787   0.26701   0.68509   0.00000  Uiso   1.00
H165   H     0.88854   0.37232   0.65557   0.00000  Uiso   1.00
H166   H     0.53758   0.09570   0.41942   0.00000  Uiso   1.00
H167   H     0.28619   0.20643   0.76052   0.00000  Uiso   1.00
H168   H     0.13109   0.42851   0.69829   0.00000  Uiso   1.00
H169   H     0.56269   0.85999   0.67032   0.00000  Uiso   1.00
H170   H     0.50599   0.77854   0.57363   0.00000  Uiso   1.00
H171   H     0.38675   0.83104   0.73539   0.00000  Uiso   1.00
H172   H     0.78742   0.93636   0.70588   0.00000  Uiso   1.00
H173   H     0.45550   0.74186   0.46025   0.00000  Uiso   1.00
H174   H     0.20411   0.85259   0.80135   0.00000  Uiso   1.00
H175   H     0.04901   0.07466   0.73912   0.00000  Uiso   1.00
O176   O     0.46092   0.87265   0.37537   0.00000  Uiso   1.00
O177   O     0.13113   0.01793   0.82289   0.00000  Uiso   1.00
O178   O     0.23962   0.30929   0.74124   0.00000  Uiso   1.00
N179   N     0.52607   0.02361   0.44229   0.00000  Uiso   1.00
N180   N     0.29102   0.12712   0.76120   0.00000  Uiso   1.00
N181   N     0.08092   0.33475   0.70303   0.00000  Uiso   1.00
N182   N     0.48190   0.83321   0.46426   0.00000  Uiso   1.00
N183   N     0.24686   0.93672   0.78317   0.00000  Uiso   1.00
N184   N     0.03676   0.14435   0.72500   0.00000  Uiso   1.00
C185   C     0.82142   0.45801   0.96688   0.00000  Uiso   1.00
C186   C     0.91065   0.50601   0.91954   0.00000  Uiso   1.00
C187   C     0.87963   0.46490   0.86750   0.00000  Uiso   1.00
C188   C     0.97464   0.52056   0.82994   0.00000  Uiso   1.00
C189   C     0.09471   0.58084   0.75430   0.00000  Uiso   1.00
C190   C     0.88213   0.41269   0.00743   0.00000  Uiso   1.00
C191   C     0.82711   0.29312   0.02928   0.00000  Uiso   1.00
C192   C     0.89812   0.27024   0.06571   0.00000  Uiso   1.00
C193   C     0.97388   0.18567   0.12655   0.00000  Uiso   1.00
C194   C     0.82491   0.57317   0.99139   0.00000  Uiso   1.00
C195   C     0.72178   0.58853   0.99977   0.00000  Uiso   1.00
C196   C     0.74460   0.70075   0.02271   0.00000  Uiso   1.00
C197   C     0.73152   0.86534   0.05864   0.00000  Uiso   1.00
C198   C     0.04533   0.62998   0.99272   0.00000  Uiso   1.00
C199   C     0.03227   0.59942   0.93358   0.00000  Uiso   1.00
C200   C     0.12736   0.65517   0.89609   0.00000  Uiso   1.00
C201   C     0.09648   0.61415   0.84400   0.00000  Uiso   1.00
C202   C     0.00375   0.50610   0.02146   0.00000  Uiso   1.00
C203   C     0.07485   0.48339   0.05787   0.00000  Uiso   1.00
C204   C     0.01996   0.36382   0.07977   0.00000  Uiso   1.00
C205   C     0.94653   0.66658   0.00542   0.00000  Uiso   1.00
C206   C     0.96951   0.77880   0.02836   0.00000  Uiso   1.00
C207   C     0.86644   0.79432   0.03677   0.00000  Uiso   1.00
H208   H     0.72673   0.38529   0.95596   0.00000  Uiso   1.00
H209   H     0.78550   0.39260   0.85665   0.00000  Uiso   1.00
H210   H     0.73299   0.22086   0.01842   0.00000  Uiso   1.00
H211   H     0.62768   0.51622   0.98891   0.00000  Uiso   1.00
H212   H     0.90430   0.44187   0.75275   0.00000  Uiso   1.00
H213   H     0.79357   0.07976   0.09385   0.00000  Uiso   1.00
H214   H     0.57149   0.70258   0.03163   0.00000  Uiso   1.00
H215   H     0.14001   0.70271   0.00365   0.00000  Uiso   1.00
H216   H     0.22146   0.72745   0.90696   0.00000  Uiso   1.00
H217   H     0.16896   0.55570   0.06873   0.00000  Uiso   1.00
H218   H     0.06364   0.85106   0.03921   0.00000  Uiso   1.00
H219   H     0.25814   0.71364   0.79358   0.00000  Uiso   1.00
H220   H     0.14741   0.35153   0.13469   0.00000  Uiso   1.00
H221   H     0.92534   0.97435   0.07246   0.00000  Uiso   1.00
O222   O     0.12735   0.58827   0.70870   0.00000  Uiso   1.00
O223   O     0.98207   0.11321   0.15622   0.00000  Uiso   1.00
O224   O     0.69071   0.93033   0.07458   0.00000  Uiso   1.00
N225   N     0.97639   0.50246   0.77563   0.00000  Uiso   1.00
N226   N     0.87288   0.16390   0.09453   0.00000  Uiso   1.00
N227   N     0.66525   0.74617   0.03637   0.00000  Uiso   1.00
N228   N     0.16679   0.64869   0.79760   0.00000  Uiso   1.00
N229   N     0.06328   0.31014   0.11650   0.00000  Uiso   1.00
N230   N     0.85565   0.89241   0.05834   0.00000  Uiso   1.00
C231   C     0.54199   0.36340   0.30022   0.00000  Uiso   1.00
C232   C     0.49399   0.40464   0.25287   0.00000  Uiso   1.00
C233   C     0.53510   0.41473   0.20083   0.00000  Uiso   1.00
C234   C     0.47944   0.45407   0.16327   0.00000  Uiso   1.00
C235   C     0.41916   0.51387   0.08763   0.00000  Uiso   1.00
C236   C     0.58731   0.46944   0.34076   0.00000  Uiso   1.00
C237   C     0.70688   0.53399   0.36262   0.00000  Uiso   1.00
C238   C     0.72976   0.62788   0.39905   0.00000  Uiso   1.00
C239   C     0.81433   0.78821   0.45988   0.00000  Uiso   1.00
C240   C     0.42683   0.25174   0.32472   0.00000  Uiso   1.00
C241   C     0.41147   0.13325   0.33311   0.00000  Uiso   1.00
C242   C     0.29925   0.04386   0.35604   0.00000  Uiso   1.00
C243   C     0.13466   0.86618   0.39198   0.00000  Uiso   1.00
C244   C     0.37002   0.41534   0.32606   0.00000  Uiso   1.00
C245   C     0.40058   0.43285   0.26691   0.00000  Uiso   1.00
C246   C     0.34483   0.47219   0.22942   0.00000  Uiso   1.00
C247   C     0.38585   0.48233   0.17733   0.00000  Uiso   1.00
C248   C     0.49390   0.49765   0.35480   0.00000  Uiso   1.00
C249   C     0.51661   0.59145   0.39121   0.00000  Uiso   1.00
C250   C     0.63618   0.65614   0.41311   0.00000  Uiso   1.00
C251   C     0.33342   0.27995   0.33876   0.00000  Uiso   1.00
C252   C     0.22120   0.19072   0.36169   0.00000  Uiso   1.00
C253   C     0.20568   0.07212   0.37011   0.00000  Uiso   1.00
H254   H     0.61471   0.34145   0.28929   0.00000  Uiso   1.00
H255   H     0.60740   0.39290   0.18999   0.00000  Uiso   1.00
H256   H     0.77914   0.51213   0.35175   0.00000  Uiso   1.00
H257   H     0.48378   0.11146   0.32224   0.00000  Uiso   1.00
H258   H     0.55813   0.46242   0.08608   0.00000  Uiso   1.00
H259   H     0.92024   0.71381   0.42719   0.00000  Uiso   1.00
H260   H     0.29742   0.86891   0.36496   0.00000  Uiso   1.00
H261   H     0.29729   0.43731   0.33699   0.00000  Uiso   1.00
H262   H     0.27255   0.49401   0.24029   0.00000  Uiso   1.00
H263   H     0.44430   0.61325   0.40206   0.00000  Uiso   1.00
H264   H     0.14894   0.21258   0.37255   0.00000  Uiso   1.00
H265   H     0.28636   0.54450   0.12691   0.00000  Uiso   1.00
H266   H     0.64847   0.79589   0.46802   0.00000  Uiso   1.00
H267   H     0.02565   0.95099   0.40579   0.00000  Uiso   1.00
O268   O     0.41173   0.53908   0.04203   0.00000  Uiso   1.00
O269   O     0.88679   0.86887   0.48955   0.00000  Uiso   1.00
O270   O     0.06967   0.76038   0.40791   0.00000  Uiso   1.00
N271   N     0.49754   0.47393   0.10896   0.00000  Uiso   1.00
N272   N     0.83610   0.70898   0.42786   0.00000  Uiso   1.00
N273   N     0.25383   0.91908   0.36970   0.00000  Uiso   1.00
N274   N     0.35131   0.51810   0.13093   0.00000  Uiso   1.00
N275   N     0.68986   0.75314   0.44983   0.00000  Uiso   1.00
N276   N     0.10759   0.96324   0.39167   0.00000  Uiso   1.00
