data_job_06312
_audit_creation_date              2018-12-19
_audit_creation_method            'Materials Studio'
_symmetry_space_group_name_H-M    'P1'
_symmetry_Int_Tables_number       1
_symmetry_cell_setting            triclinic
loop_
_symmetry_equiv_pos_as_xyz
  x,y,z
_cell_length_a                    17.7123
_cell_length_b                    17.2835
_cell_length_c                    16.2402
_cell_angle_alpha                 99.3631
_cell_angle_beta                  99.3739
_cell_angle_gamma                 97.5887
loop_
_atom_site_label
_atom_site_type_symbol
_atom_site_fract_x
_atom_site_fract_y
_atom_site_fract_z
_atom_site_U_iso_or_equiv
_atom_site_adp_type
_atom_site_occupancy
C1     C     0.31067   0.96933   0.82368   0.00000  Uiso   1.00
C2     C     0.22299   0.94302   0.80377   0.00000  Uiso   1.00
C3     C     0.16789   0.99292   0.80791   0.00000  Uiso   1.00
C4     C     0.09058   0.95726   0.78726   0.00000  Uiso   1.00
C5     C     0.95768   0.92897   0.76003   0.00000  Uiso   1.00
C6     C     0.34189   0.92528   0.89261   0.00000  Uiso   1.00
C7     C     0.38677   0.96028   0.97143   0.00000  Uiso   1.00
C8     C     0.40956   0.90969   0.02556   0.00000  Uiso   1.00
C9     C     0.46131   0.85386   0.13622   0.00000  Uiso   1.00
C10    C     0.34019   0.93548   0.74448   0.00000  Uiso   1.00
C11    C     0.38366   0.97904   0.69876   0.00000  Uiso   1.00
C12    C     0.40504   0.93703   0.62817   0.00000  Uiso   1.00
C13    C     0.45415   0.89702   0.50884   0.00000  Uiso   1.00
C14    C     0.27136   0.81725   0.77963   0.00000  Uiso   1.00
C15    C     0.20164   0.86041   0.77985   0.00000  Uiso   1.00
C16    C     0.12439   0.82467   0.75918   0.00000  Uiso   1.00
C17    C     0.06918   0.87451   0.76329   0.00000  Uiso   1.00
C18    C     0.32054   0.84268   0.86869   0.00000  Uiso   1.00
C19    C     0.34327   0.79203   0.92270   0.00000  Uiso   1.00
C20    C     0.38817   0.82694   0.00159   0.00000  Uiso   1.00
C21    C     0.31884   0.85287   0.72055   0.00000  Uiso   1.00
C22    C     0.34016   0.81079   0.65003   0.00000  Uiso   1.00
C23    C     0.38365   0.85428   0.60421   0.00000  Uiso   1.00
H24    H     0.32730   0.03364   0.84231   0.00000  Uiso   1.00
H25    H     0.18444   0.05684   0.82644   0.00000  Uiso   1.00
H26    H     0.40329   0.02421   0.98993   0.00000  Uiso   1.00
H27    H     0.40018   0.04296   0.71729   0.00000  Uiso   1.00
H28    H     0.01663   0.04614   0.79832   0.00000  Uiso   1.00
H29    H     0.47812   0.97732   0.14304   0.00000  Uiso   1.00
H30    H     0.47156   0.01687   0.56814   0.00000  Uiso   1.00
H31    H     0.25473   0.75294   0.76101   0.00000  Uiso   1.00
H32    H     0.10788   0.76074   0.74067   0.00000  Uiso   1.00
H33    H     0.32674   0.72811   0.90417   0.00000  Uiso   1.00
H34    H     0.32362   0.74686   0.63153   0.00000  Uiso   1.00
H35    H     0.95449   0.80582   0.72872   0.00000  Uiso   1.00
H36    H     0.41599   0.73700   0.07343   0.00000  Uiso   1.00
H37    H     0.40942   0.77655   0.49853   0.00000  Uiso   1.00
O38    O     0.89027   0.93618   0.75163   0.00000  Uiso   1.00
O39    O     0.49575   0.84589   0.20388   0.00000  Uiso   1.00
O40    O     0.48713   0.89778   0.44962   0.00000  Uiso   1.00
N41    N     0.02216   0.98851   0.78471   0.00000  Uiso   1.00
N42    N     0.45362   0.92417   0.10701   0.00000  Uiso   1.00
N43    N     0.44750   0.96115   0.56954   0.00000  Uiso   1.00
N44    N     0.98872   0.85920   0.74726   0.00000  Uiso   1.00
N45    N     0.42019   0.79485   0.06955   0.00000  Uiso   1.00
N46    N     0.41406   0.83183   0.53208   0.00000  Uiso   1.00
C47    C     0.82748   0.31118   0.97358   0.00000  Uiso   1.00
C48    C     0.81090   0.22121   0.94402   0.00000  Uiso   1.00
C49    C     0.81542   0.16533   0.99632   0.00000  Uiso   1.00
C50    C     0.79802   0.08587   0.95697   0.00000  Uiso   1.00
C51    C     0.77553   0.94962   0.92452   0.00000  Uiso   1.00
C52    C     0.89031   0.34196   0.92751   0.00000  Uiso   1.00
C53    C     0.96159   0.38762   0.96594   0.00000  Uiso   1.00
C54    C     0.01103   0.40983   0.91269   0.00000  Uiso   1.00
C55    C     0.11179   0.46109   0.85462   0.00000  Uiso   1.00
C56    C     0.75455   0.34177   0.93758   0.00000  Uiso   1.00
C57    C     0.71169   0.38729   0.98446   0.00000  Uiso   1.00
C58    C     0.64683   0.40936   0.93968   0.00000  Uiso   1.00
C59    C     0.53681   0.46033   0.89724   0.00000  Uiso   1.00
C60    C     0.78853   0.26945   0.81069   0.00000  Uiso   1.00
C61    C     0.78975   0.19854   0.85554   0.00000  Uiso   1.00
C62    C     0.77232   0.11916   0.81610   0.00000  Uiso   1.00
C63    C     0.77682   0.06316   0.86833   0.00000  Uiso   1.00
C64    C     0.86915   0.31930   0.83904   0.00000  Uiso   1.00
C65    C     0.91849   0.34145   0.78572   0.00000  Uiso   1.00
C66    C     0.98983   0.38712   0.82405   0.00000  Uiso   1.00
C67    C     0.73339   0.31911   0.84910   0.00000  Uiso   1.00
C68    C     0.66859   0.34112   0.80424   0.00000  Uiso   1.00
C69    C     0.62564   0.38665   0.85104   0.00000  Uiso   1.00
H70    H     0.84396   0.32883   0.04246   0.00000  Uiso   1.00
H71    H     0.83181   0.18289   0.06479   0.00000  Uiso   1.00
H72    H     0.97795   0.40516   0.03441   0.00000  Uiso   1.00
H73    H     0.72808   0.40482   0.05293   0.00000  Uiso   1.00
H74    H     0.80903   0.01109   0.05052   0.00000  Uiso   1.00
H75    H     0.11716   0.47977   0.98647   0.00000  Uiso   1.00
H76    H     0.59028   0.47908   0.02552   0.00000  Uiso   1.00
H77    H     0.77206   0.25180   0.74180   0.00000  Uiso   1.00
H78    H     0.75595   0.10163   0.74763   0.00000  Uiso   1.00
H79    H     0.90210   0.32390   0.71725   0.00000  Uiso   1.00
H80    H     0.65223   0.32357   0.73577   0.00000  Uiso   1.00
H81    H     0.74747   0.94514   0.79310   0.00000  Uiso   1.00
H82    H     0.05560   0.41383   0.72905   0.00000  Uiso   1.00
H83    H     0.52871   0.41312   0.76810   0.00000  Uiso   1.00
O84    O     0.76898   0.88072   0.93107   0.00000  Uiso   1.00
O85    O     0.17323   0.49563   0.84704   0.00000  Uiso   1.00
O86    O     0.48197   0.49470   0.89827   0.00000  Uiso   1.00
N87    N     0.79674   0.01618   0.98914   0.00000  Uiso   1.00
N88    N     0.08483   0.45436   0.92925   0.00000  Uiso   1.00
N89    N     0.59224   0.45372   0.96576   0.00000  Uiso   1.00
N90    N     0.76361   0.98069   0.85062   0.00000  Uiso   1.00
N91    N     0.05170   0.41887   0.79074   0.00000  Uiso   1.00
N92    N     0.55912   0.41824   0.82724   0.00000  Uiso   1.00
C93    C     0.96613   0.82480   0.31210   0.00000  Uiso   1.00
C94    C     0.93976   0.80699   0.21582   0.00000  Uiso   1.00
C95    C     0.98787   0.81043   0.15662   0.00000  Uiso   1.00
C96    C     0.95249   0.79200   0.07149   0.00000  Uiso   1.00
C97    C     0.92379   0.76759   0.92578   0.00000  Uiso   1.00
C98    C     0.92268   0.88999   0.34567   0.00000  Uiso   1.00
C99    C     0.95643   0.96322   0.39567   0.00000  Uiso   1.00
C100   C     0.90666   0.01466   0.41986   0.00000  Uiso   1.00
C101   C     0.85144   0.11910   0.47581   0.00000  Uiso   1.00
C102   C     0.93428   0.75079   0.34332   0.00000  Uiso   1.00
C103   C     0.97777   0.70699   0.39137   0.00000  Uiso   1.00
C104   C     0.93777   0.64124   0.41360   0.00000  Uiso   1.00
C105   C     0.90056   0.52955   0.46590   0.00000  Uiso   1.00
C106   C     0.81774   0.78594   0.26616   0.00000  Uiso   1.00
C107   C     0.85916   0.78588   0.19087   0.00000  Uiso   1.00
C108   C     0.82370   0.76744   0.10580   0.00000  Uiso   1.00
C109   C     0.87175   0.77085   0.04649   0.00000  Uiso   1.00
C110   C     0.84208   0.86889   0.32072   0.00000  Uiso   1.00
C111   C     0.79225   0.92023   0.34485   0.00000  Uiso   1.00
C112   C     0.82592   0.99352   0.39486   0.00000  Uiso   1.00
C113   C     0.85368   0.72968   0.31837   0.00000  Uiso   1.00
C114   C     0.81360   0.66399   0.34054   0.00000  Uiso   1.00
C115   C     0.85703   0.62009   0.38860   0.00000  Uiso   1.00
H116   H     0.02888   0.84123   0.33153   0.00000  Uiso   1.00
H117   H     0.05024   0.82677   0.17596   0.00000  Uiso   1.00
H118   H     0.01880   0.97953   0.41498   0.00000  Uiso   1.00
H119   H     0.04014   0.72334   0.41067   0.00000  Uiso   1.00
H120   H     0.03838   0.80146   0.99248   0.00000  Uiso   1.00
H121   H     0.97208   0.12356   0.49649   0.00000  Uiso   1.00
H122   H     0.01709   0.58332   0.48740   0.00000  Uiso   1.00
H123   H     0.75499   0.76951   0.24673   0.00000  Uiso   1.00
H124   H     0.76132   0.75111   0.08651   0.00000  Uiso   1.00
H125   H     0.72988   0.90387   0.32553   0.00000  Uiso   1.00
H126   H     0.75123   0.64768   0.32122   0.00000  Uiso   1.00
H127   H     0.80388   0.74005   0.91988   0.00000  Uiso   1.00
H128   H     0.73758   0.06215   0.42389   0.00000  Uiso   1.00
H129   H     0.78259   0.52191   0.41480   0.00000  Uiso   1.00
O130   O     0.93023   0.75997   0.85230   0.00000  Uiso   1.00
O131   O     0.84325   0.18254   0.51356   0.00000  Uiso   1.00
O132   O     0.90230   0.47376   0.50163   0.00000  Uiso   1.00
N133   N     0.98232   0.78951   0.99738   0.00000  Uiso   1.00
N134   N     0.92034   0.09066   0.46859   0.00000  Uiso   1.00
N135   N     0.96241   0.58560   0.46011   0.00000  Uiso   1.00
N136   N     0.85614   0.75647   0.95831   0.00000  Uiso   1.00
N137   N     0.79416   0.05762   0.42952   0.00000  Uiso   1.00
N138   N     0.83623   0.55256   0.42105   0.00000  Uiso   1.00
C139   C     0.68933   0.03067   0.17632   0.00000  Uiso   1.00
C140   C     0.77701   0.05698   0.19623   0.00000  Uiso   1.00
C141   C     0.83211   0.00708   0.19209   0.00000  Uiso   1.00
C142   C     0.90942   0.04274   0.21274   0.00000  Uiso   1.00
C143   C     0.04232   0.07103   0.23997   0.00000  Uiso   1.00
C144   C     0.65811   0.07472   0.10739   0.00000  Uiso   1.00
C145   C     0.61323   0.03972   0.02857   0.00000  Uiso   1.00
C146   C     0.59044   0.09031   0.97444   0.00000  Uiso   1.00
C147   C     0.53869   0.14614   0.86378   0.00000  Uiso   1.00
C148   C     0.65981   0.06452   0.25552   0.00000  Uiso   1.00
C149   C     0.61634   0.02096   0.30124   0.00000  Uiso   1.00
C150   C     0.59496   0.06297   0.37183   0.00000  Uiso   1.00
C151   C     0.54585   0.10298   0.49116   0.00000  Uiso   1.00
C152   C     0.72864   0.18275   0.22037   0.00000  Uiso   1.00
C153   C     0.79836   0.13959   0.22015   0.00000  Uiso   1.00
C154   C     0.87561   0.17533   0.24082   0.00000  Uiso   1.00
C155   C     0.93082   0.12549   0.23671   0.00000  Uiso   1.00
C156   C     0.67946   0.15732   0.13131   0.00000  Uiso   1.00
C157   C     0.65673   0.20797   0.07730   0.00000  Uiso   1.00
C158   C     0.61183   0.17306   0.99841   0.00000  Uiso   1.00
C159   C     0.68116   0.14713   0.27945   0.00000  Uiso   1.00
C160   C     0.65984   0.18922   0.34997   0.00000  Uiso   1.00
C161   C     0.61635   0.14572   0.39579   0.00000  Uiso   1.00
H162   H     0.67270   0.96636   0.15769   0.00000  Uiso   1.00
H163   H     0.81556   0.94316   0.17356   0.00000  Uiso   1.00
H164   H     0.59671   0.97579   0.01007   0.00000  Uiso   1.00
H165   H     0.59982   0.95704   0.28271   0.00000  Uiso   1.00
H166   H     0.98337   0.95386   0.20168   0.00000  Uiso   1.00
H167   H     0.52188   0.02268   0.85696   0.00000  Uiso   1.00
H168   H     0.52844   0.98313   0.43187   0.00000  Uiso   1.00
H169   H     0.74527   0.24706   0.23899   0.00000  Uiso   1.00
H170   H     0.89212   0.23926   0.25933   0.00000  Uiso   1.00
H171   H     0.67326   0.27189   0.09583   0.00000  Uiso   1.00
H172   H     0.67638   0.25314   0.36847   0.00000  Uiso   1.00
H173   H     0.04551   0.19418   0.27128   0.00000  Uiso   1.00
H174   H     0.58401   0.26300   0.92657   0.00000  Uiso   1.00
H175   H     0.59058   0.22345   0.50147   0.00000  Uiso   1.00
O176   O     0.10973   0.06382   0.24837   0.00000  Uiso   1.00
O177   O     0.50425   0.15411   0.79612   0.00000  Uiso   1.00
O178   O     0.51287   0.10222   0.55038   0.00000  Uiso   1.00
N179   N     0.97784   0.01149   0.21529   0.00000  Uiso   1.00
N180   N     0.54638   0.07583   0.89299   0.00000  Uiso   1.00
N181   N     0.55250   0.03885   0.43046   0.00000  Uiso   1.00
N182   N     0.01128   0.14080   0.25274   0.00000  Uiso   1.00
N183   N     0.57981   0.20515   0.93045   0.00000  Uiso   1.00
N184   N     0.58594   0.16817   0.46792   0.00000  Uiso   1.00
C185   C     0.17252   0.68882   0.02642   0.00000  Uiso   1.00
C186   C     0.18910   0.77879   0.05598   0.00000  Uiso   1.00
C187   C     0.18457   0.83467   0.00368   0.00000  Uiso   1.00
C188   C     0.20198   0.91413   0.04303   0.00000  Uiso   1.00
C189   C     0.22447   0.05038   0.07548   0.00000  Uiso   1.00
C190   C     0.10969   0.65804   0.07249   0.00000  Uiso   1.00
C191   C     0.03841   0.61238   0.03406   0.00000  Uiso   1.00
C192   C     0.98897   0.59017   0.08731   0.00000  Uiso   1.00
C193   C     0.88821   0.53891   0.14538   0.00000  Uiso   1.00
C194   C     0.24545   0.65823   0.06242   0.00000  Uiso   1.00
C195   C     0.28831   0.61271   0.01554   0.00000  Uiso   1.00
C196   C     0.35317   0.59064   0.06032   0.00000  Uiso   1.00
C197   C     0.46319   0.53967   0.10276   0.00000  Uiso   1.00
C198   C     0.21147   0.73055   0.18931   0.00000  Uiso   1.00
C199   C     0.21025   0.80146   0.14446   0.00000  Uiso   1.00
C200   C     0.22768   0.88084   0.18390   0.00000  Uiso   1.00
C201   C     0.22318   0.93684   0.13167   0.00000  Uiso   1.00
C202   C     0.13085   0.68070   0.16096   0.00000  Uiso   1.00
C203   C     0.08151   0.65855   0.21428   0.00000  Uiso   1.00
C204   C     0.01017   0.61288   0.17594   0.00000  Uiso   1.00
C205   C     0.26661   0.68089   0.15090   0.00000  Uiso   1.00
C206   C     0.33141   0.65888   0.19576   0.00000  Uiso   1.00
C207   C     0.37436   0.61335   0.14896   0.00000  Uiso   1.00
H208   H     0.15604   0.67117   0.95754   0.00000  Uiso   1.00
H209   H     0.16819   0.81711   0.93521   0.00000  Uiso   1.00
H210   H     0.02205   0.59484   0.96559   0.00000  Uiso   1.00
H211   H     0.27192   0.59518   0.94707   0.00000  Uiso   1.00
H212   H     0.19097   0.98891   0.94948   0.00000  Uiso   1.00
H213   H     0.88284   0.52023   0.01353   0.00000  Uiso   1.00
H214   H     0.40972   0.52092   0.97448   0.00000  Uiso   1.00
H215   H     0.22794   0.74820   0.25820   0.00000  Uiso   1.00
H216   H     0.24405   0.89837   0.25237   0.00000  Uiso   1.00
H217   H     0.09790   0.67610   0.28275   0.00000  Uiso   1.00
H218   H     0.34777   0.67643   0.26423   0.00000  Uiso   1.00
H219   H     0.25253   0.05486   0.20690   0.00000  Uiso   1.00
H220   H     0.94440   0.58617   0.27095   0.00000  Uiso   1.00
H221   H     0.47129   0.58688   0.23190   0.00000  Uiso   1.00
O222   O     0.23102   0.11928   0.06893   0.00000  Uiso   1.00
O223   O     0.82677   0.50437   0.15296   0.00000  Uiso   1.00
O224   O     0.51803   0.50530   0.10173   0.00000  Uiso   1.00
N225   N     0.20326   0.98382   0.01086   0.00000  Uiso   1.00
N226   N     0.91517   0.54564   0.07075   0.00000  Uiso   1.00
N227   N     0.40776   0.54628   0.03424   0.00000  Uiso   1.00
N228   N     0.23639   0.01931   0.14938   0.00000  Uiso   1.00
N229   N     0.94830   0.58113   0.20926   0.00000  Uiso   1.00
N230   N     0.44088   0.58176   0.17276   0.00000  Uiso   1.00
C231   C     0.03387   0.17520   0.68790   0.00000  Uiso   1.00
C232   C     0.06024   0.19301   0.78418   0.00000  Uiso   1.00
C233   C     0.01213   0.18957   0.84338   0.00000  Uiso   1.00
C234   C     0.04751   0.20801   0.92851   0.00000  Uiso   1.00
C235   C     0.07621   0.23241   0.07422   0.00000  Uiso   1.00
C236   C     0.07732   0.11001   0.65433   0.00000  Uiso   1.00
C237   C     0.04357   0.03678   0.60433   0.00000  Uiso   1.00
C238   C     0.09334   0.98534   0.58014   0.00000  Uiso   1.00
C239   C     0.14856   0.88090   0.52419   0.00000  Uiso   1.00
C240   C     0.06572   0.24921   0.65668   0.00000  Uiso   1.00
C241   C     0.02223   0.29301   0.60863   0.00000  Uiso   1.00
C242   C     0.06223   0.35876   0.58640   0.00000  Uiso   1.00
C243   C     0.09944   0.47045   0.53410   0.00000  Uiso   1.00
C244   C     0.18226   0.21406   0.73384   0.00000  Uiso   1.00
C245   C     0.14084   0.21412   0.80913   0.00000  Uiso   1.00
C246   C     0.17630   0.23256   0.89420   0.00000  Uiso   1.00
C247   C     0.12825   0.22915   0.95351   0.00000  Uiso   1.00
C248   C     0.15792   0.13111   0.67928   0.00000  Uiso   1.00
C249   C     0.20775   0.07977   0.65515   0.00000  Uiso   1.00
C250   C     0.17408   0.00648   0.60514   0.00000  Uiso   1.00
C251   C     0.14632   0.27032   0.68163   0.00000  Uiso   1.00
C252   C     0.18640   0.33601   0.65946   0.00000  Uiso   1.00
C253   C     0.14297   0.37991   0.61140   0.00000  Uiso   1.00
H254   H     0.97112   0.15877   0.66847   0.00000  Uiso   1.00
H255   H     0.94976   0.17323   0.82404   0.00000  Uiso   1.00
H256   H     0.98120   0.02047   0.58502   0.00000  Uiso   1.00
H257   H     0.95986   0.27666   0.58933   0.00000  Uiso   1.00
H258   H     0.96162   0.19854   0.00752   0.00000  Uiso   1.00
H259   H     0.02792   0.87644   0.50351   0.00000  Uiso   1.00
H260   H     0.98291   0.41668   0.51260   0.00000  Uiso   1.00
H261   H     0.24501   0.23049   0.75327   0.00000  Uiso   1.00
H262   H     0.23868   0.24890   0.91349   0.00000  Uiso   1.00
H263   H     0.27012   0.09613   0.67447   0.00000  Uiso   1.00
H264   H     0.24877   0.35232   0.67878   0.00000  Uiso   1.00
H265   H     0.19612   0.25995   0.08012   0.00000  Uiso   1.00
H266   H     0.26242   0.93785   0.57611   0.00000  Uiso   1.00
H267   H     0.21741   0.47809   0.58520   0.00000  Uiso   1.00
O268   O     0.06977   0.24003   0.14770   0.00000  Uiso   1.00
O269   O     0.15675   0.81746   0.48644   0.00000  Uiso   1.00
O270   O     0.09770   0.52624   0.49837   0.00000  Uiso   1.00
N271   N     0.01768   0.21049   0.00262   0.00000  Uiso   1.00
N272   N     0.07966   0.90934   0.53141   0.00000  Uiso   1.00
N273   N     0.03759   0.41440   0.53989   0.00000  Uiso   1.00
N274   N     0.14386   0.24353   0.04169   0.00000  Uiso   1.00
N275   N     0.20584   0.94238   0.57048   0.00000  Uiso   1.00
N276   N     0.16377   0.44744   0.57895   0.00000  Uiso   1.00
