data_job_05660
_audit_creation_date              2018-12-19
_audit_creation_method            'Materials Studio'
_symmetry_space_group_name_H-M    'P1'
_symmetry_Int_Tables_number       1
_symmetry_cell_setting            triclinic
loop_
_symmetry_equiv_pos_as_xyz
  x,y,z
_cell_length_a                    13.9070
_cell_length_b                    23.0994
_cell_length_c                    16.9429
_cell_angle_alpha                 90.0000
_cell_angle_beta                  90.0000
_cell_angle_gamma                 90.0000
loop_
_atom_site_label
_atom_site_type_symbol
_atom_site_fract_x
_atom_site_fract_y
_atom_site_fract_z
_atom_site_U_iso_or_equiv
_atom_site_adp_type
_atom_site_occupancy
C1     C     0.02359   0.40224   0.71029   0.00000  Uiso   1.00
C2     C     0.91990   0.38491   0.72757   0.00000  Uiso   1.00
C3     C     0.83860   0.41580   0.70565   0.00000  Uiso   1.00
C4     C     0.75020   0.39269   0.72705   0.00000  Uiso   1.00
C5     C     0.59023   0.37373   0.74757   0.00000  Uiso   1.00
C6     C     0.07425   0.40463   0.79004   0.00000  Uiso   1.00
C7     C     0.12273   0.45211   0.82064   0.00000  Uiso   1.00
C8     C     0.16428   0.44559   0.89462   0.00000  Uiso   1.00
C9     C     0.24400   0.45723   0.01209   0.00000  Uiso   1.00
C10    C     0.06812   0.35140   0.66601   0.00000  Uiso   1.00
C11    C     0.11147   0.35413   0.59232   0.00000  Uiso   1.00
C12    C     0.14788   0.30281   0.56189   0.00000  Uiso   1.00
C13    C     0.21808   0.23181   0.48678   0.00000  Uiso   1.00
C14    C     0.01119   0.30625   0.78727   0.00000  Uiso   1.00
C15    C     0.91317   0.33277   0.76939   0.00000  Uiso   1.00
C16    C     0.82488   0.30960   0.79082   0.00000  Uiso   1.00
C17    C     0.74345   0.34046   0.76894   0.00000  Uiso   1.00
C18    C     0.06752   0.35249   0.83186   0.00000  Uiso   1.00
C19    C     0.10901   0.34590   0.90581   0.00000  Uiso   1.00
C20    C     0.15754   0.39336   0.93651   0.00000  Uiso   1.00
C21    C     0.06139   0.29926   0.70782   0.00000  Uiso   1.00
C22    C     0.09775   0.24793   0.67749   0.00000  Uiso   1.00
C23    C     0.14114   0.25057   0.60377   0.00000  Uiso   1.00
H24    H     0.02884   0.44283   0.67774   0.00000  Uiso   1.00
H25    H     0.84384   0.45616   0.67330   0.00000  Uiso   1.00
H26    H     0.12794   0.49245   0.78826   0.00000  Uiso   1.00
H27    H     0.11667   0.39449   0.55998   0.00000  Uiso   1.00
H28    H     0.63577   0.44795   0.68685   0.00000  Uiso   1.00
H29    H     0.23483   0.52446   0.92924   0.00000  Uiso   1.00
H30    H     0.21108   0.31789   0.44787   0.00000  Uiso   1.00
H31    H     0.00595   0.26565   0.81982   0.00000  Uiso   1.00
H32    H     0.81969   0.26925   0.82318   0.00000  Uiso   1.00
H33    H     0.10379   0.30555   0.93815   0.00000  Uiso   1.00
H34    H     0.09252   0.20759   0.70987   0.00000  Uiso   1.00
H35    H     0.61616   0.29625   0.80850   0.00000  Uiso   1.00
H36    H     0.21524   0.37277   0.05089   0.00000  Uiso   1.00
H37    H     0.19147   0.16620   0.56952   0.00000  Uiso   1.00
O38    O     0.50385   0.37767   0.74734   0.00000  Uiso   1.00
O39    O     0.28982   0.47806   0.06534   0.00000  Uiso   1.00
O40    O     0.25864   0.20705   0.43379   0.00000  Uiso   1.00
N41    N     0.65671   0.41174   0.71500   0.00000  Uiso   1.00
N42    N     0.21679   0.48329   0.94163   0.00000  Uiso   1.00
N43    N     0.19460   0.29017   0.49160   0.00000  Uiso   1.00
N44    N     0.64617   0.33012   0.78046   0.00000  Uiso   1.00
N45    N     0.20625   0.40166   0.00709   0.00000  Uiso   1.00
N46    N     0.18406   0.20854   0.55706   0.00000  Uiso   1.00
C47    C     0.49175   0.09653   0.78934   0.00000  Uiso   1.00
C48    C     0.59543   0.11383   0.77195   0.00000  Uiso   1.00
C49    C     0.67674   0.08290   0.79381   0.00000  Uiso   1.00
C50    C     0.76513   0.10598   0.77233   0.00000  Uiso   1.00
C51    C     0.92509   0.12489   0.75166   0.00000  Uiso   1.00
C52    C     0.44098   0.09414   0.70963   0.00000  Uiso   1.00
C53    C     0.39242   0.04667   0.67909   0.00000  Uiso   1.00
C54    C     0.35078   0.05319   0.60514   0.00000  Uiso   1.00
C55    C     0.27090   0.04155   0.48774   0.00000  Uiso   1.00
C56    C     0.44732   0.14739   0.83363   0.00000  Uiso   1.00
C57    C     0.40407   0.14469   0.90736   0.00000  Uiso   1.00
C58    C     0.36774   0.19603   0.93781   0.00000  Uiso   1.00
C59    C     0.29771   0.26707   0.01295   0.00000  Uiso   1.00
C60    C     0.50414   0.19250   0.71231   0.00000  Uiso   1.00
C61    C     0.60216   0.16595   0.73011   0.00000  Uiso   1.00
C62    C     0.69044   0.18909   0.70859   0.00000  Uiso   1.00
C63    C     0.77187   0.15821   0.73042   0.00000  Uiso   1.00
C64    C     0.44771   0.14627   0.66779   0.00000  Uiso   1.00
C65    C     0.40613   0.15286   0.59387   0.00000  Uiso   1.00
C66    C     0.35752   0.10541   0.56323   0.00000  Uiso   1.00
C67    C     0.45405   0.19952   0.79180   0.00000  Uiso   1.00
C68    C     0.41778   0.25087   0.82214   0.00000  Uiso   1.00
C69    C     0.37448   0.24825   0.89590   0.00000  Uiso   1.00
H70    H     0.48651   0.05595   0.82190   0.00000  Uiso   1.00
H71    H     0.67150   0.04256   0.82618   0.00000  Uiso   1.00
H72    H     0.38722   0.00634   0.71148   0.00000  Uiso   1.00
H73    H     0.39887   0.10434   0.93972   0.00000  Uiso   1.00
H74    H     0.87957   0.05070   0.81245   0.00000  Uiso   1.00
H75    H     0.28011   0.97433   0.57061   0.00000  Uiso   1.00
H76    H     0.30468   0.18099   0.05189   0.00000  Uiso   1.00
H77    H     0.50937   0.23309   0.67973   0.00000  Uiso   1.00
H78    H     0.69563   0.22943   0.67621   0.00000  Uiso   1.00
H79    H     0.41134   0.19320   0.56151   0.00000  Uiso   1.00
H80    H     0.42300   0.29121   0.78975   0.00000  Uiso   1.00
H81    H     0.89915   0.20237   0.69073   0.00000  Uiso   1.00
H82    H     0.29969   0.12600   0.44889   0.00000  Uiso   1.00
H83    H     0.32427   0.33265   0.93016   0.00000  Uiso   1.00
O84    O     0.01147   0.12092   0.75182   0.00000  Uiso   1.00
O85    O     0.22499   0.02073   0.43454   0.00000  Uiso   1.00
O86    O     0.25724   0.29185   0.06596   0.00000  Uiso   1.00
N87    N     0.85861   0.08690   0.78430   0.00000  Uiso   1.00
N88    N     0.29818   0.01550   0.55819   0.00000  Uiso   1.00
N89    N     0.32112   0.20870   0.00813   0.00000  Uiso   1.00
N90    N     0.86915   0.16851   0.71880   0.00000  Uiso   1.00
N91    N     0.30871   0.09711   0.49269   0.00000  Uiso   1.00
N92    N     0.33166   0.29031   0.94264   0.00000  Uiso   1.00
C93    C     0.97641   0.59776   0.71029   0.00000  Uiso   1.00
C94    C     0.08010   0.61509   0.72757   0.00000  Uiso   1.00
C95    C     0.16140   0.58420   0.70565   0.00000  Uiso   1.00
C96    C     0.24980   0.60731   0.72705   0.00000  Uiso   1.00
C97    C     0.40977   0.62627   0.74757   0.00000  Uiso   1.00
C98    C     0.92575   0.59537   0.79004   0.00000  Uiso   1.00
C99    C     0.87727   0.54789   0.82064   0.00000  Uiso   1.00
C100   C     0.83572   0.55441   0.89462   0.00000  Uiso   1.00
C101   C     0.75600   0.54277   0.01209   0.00000  Uiso   1.00
C102   C     0.93188   0.64860   0.66601   0.00000  Uiso   1.00
C103   C     0.88853   0.64587   0.59232   0.00000  Uiso   1.00
C104   C     0.85212   0.69719   0.56189   0.00000  Uiso   1.00
C105   C     0.78192   0.76819   0.48678   0.00000  Uiso   1.00
C106   C     0.98881   0.69375   0.78727   0.00000  Uiso   1.00
C107   C     0.08683   0.66723   0.76939   0.00000  Uiso   1.00
C108   C     0.17512   0.69040   0.79082   0.00000  Uiso   1.00
C109   C     0.25655   0.65954   0.76894   0.00000  Uiso   1.00
C110   C     0.93248   0.64751   0.83186   0.00000  Uiso   1.00
C111   C     0.89099   0.65410   0.90581   0.00000  Uiso   1.00
C112   C     0.84246   0.60664   0.93651   0.00000  Uiso   1.00
C113   C     0.93861   0.70074   0.70782   0.00000  Uiso   1.00
C114   C     0.90225   0.75207   0.67749   0.00000  Uiso   1.00
C115   C     0.85886   0.74943   0.60377   0.00000  Uiso   1.00
H116   H     0.97116   0.55717   0.67774   0.00000  Uiso   1.00
H117   H     0.15616   0.54384   0.67330   0.00000  Uiso   1.00
H118   H     0.87206   0.50755   0.78826   0.00000  Uiso   1.00
H119   H     0.88333   0.60551   0.55998   0.00000  Uiso   1.00
H120   H     0.36423   0.55205   0.68685   0.00000  Uiso   1.00
H121   H     0.76517   0.47554   0.92924   0.00000  Uiso   1.00
H122   H     0.78892   0.68211   0.44787   0.00000  Uiso   1.00
H123   H     0.99405   0.73435   0.81982   0.00000  Uiso   1.00
H124   H     0.18031   0.73075   0.82318   0.00000  Uiso   1.00
H125   H     0.89621   0.69445   0.93815   0.00000  Uiso   1.00
H126   H     0.90748   0.79241   0.70987   0.00000  Uiso   1.00
H127   H     0.38384   0.70375   0.80850   0.00000  Uiso   1.00
H128   H     0.78476   0.62723   0.05089   0.00000  Uiso   1.00
H129   H     0.80853   0.83380   0.56952   0.00000  Uiso   1.00
O130   O     0.49615   0.62233   0.74734   0.00000  Uiso   1.00
O131   O     0.71018   0.52194   0.06534   0.00000  Uiso   1.00
O132   O     0.74136   0.79295   0.43379   0.00000  Uiso   1.00
N133   N     0.34329   0.58826   0.71500   0.00000  Uiso   1.00
N134   N     0.78321   0.51671   0.94163   0.00000  Uiso   1.00
N135   N     0.80540   0.70983   0.49160   0.00000  Uiso   1.00
N136   N     0.35383   0.66988   0.78046   0.00000  Uiso   1.00
N137   N     0.79375   0.59834   0.00709   0.00000  Uiso   1.00
N138   N     0.81594   0.79146   0.55706   0.00000  Uiso   1.00
C139   C     0.50825   0.90347   0.78934   0.00000  Uiso   1.00
C140   C     0.40457   0.88617   0.77195   0.00000  Uiso   1.00
C141   C     0.32326   0.91710   0.79381   0.00000  Uiso   1.00
C142   C     0.23487   0.89402   0.77233   0.00000  Uiso   1.00
C143   C     0.07491   0.87511   0.75166   0.00000  Uiso   1.00
C144   C     0.55902   0.90586   0.70963   0.00000  Uiso   1.00
C145   C     0.60758   0.95333   0.67909   0.00000  Uiso   1.00
C146   C     0.64922   0.94681   0.60514   0.00000  Uiso   1.00
C147   C     0.72910   0.95845   0.48774   0.00000  Uiso   1.00
C148   C     0.55268   0.85261   0.83363   0.00000  Uiso   1.00
C149   C     0.59593   0.85531   0.90736   0.00000  Uiso   1.00
C150   C     0.63226   0.80397   0.93781   0.00000  Uiso   1.00
C151   C     0.70229   0.73293   0.01295   0.00000  Uiso   1.00
C152   C     0.49586   0.80750   0.71231   0.00000  Uiso   1.00
C153   C     0.39784   0.83405   0.73011   0.00000  Uiso   1.00
C154   C     0.30956   0.81091   0.70859   0.00000  Uiso   1.00
C155   C     0.22813   0.84179   0.73042   0.00000  Uiso   1.00
C156   C     0.55229   0.85373   0.66779   0.00000  Uiso   1.00
C157   C     0.59387   0.84714   0.59387   0.00000  Uiso   1.00
C158   C     0.64248   0.89459   0.56323   0.00000  Uiso   1.00
C159   C     0.54595   0.80048   0.79180   0.00000  Uiso   1.00
C160   C     0.58222   0.74913   0.82214   0.00000  Uiso   1.00
C161   C     0.62552   0.75175   0.89590   0.00000  Uiso   1.00
H162   H     0.51349   0.94405   0.82190   0.00000  Uiso   1.00
H163   H     0.32850   0.95744   0.82618   0.00000  Uiso   1.00
H164   H     0.61278   0.99366   0.71148   0.00000  Uiso   1.00
H165   H     0.60113   0.89566   0.93972   0.00000  Uiso   1.00
H166   H     0.12043   0.94930   0.81245   0.00000  Uiso   1.00
H167   H     0.71989   0.02567   0.57061   0.00000  Uiso   1.00
H168   H     0.69532   0.81901   0.05189   0.00000  Uiso   1.00
H169   H     0.49063   0.76691   0.67973   0.00000  Uiso   1.00
H170   H     0.30437   0.77057   0.67621   0.00000  Uiso   1.00
H171   H     0.58866   0.80680   0.56151   0.00000  Uiso   1.00
H172   H     0.57700   0.70879   0.78975   0.00000  Uiso   1.00
H173   H     0.10085   0.79763   0.69073   0.00000  Uiso   1.00
H174   H     0.70031   0.87400   0.44889   0.00000  Uiso   1.00
H175   H     0.67573   0.66735   0.93016   0.00000  Uiso   1.00
O176   O     0.98853   0.87908   0.75182   0.00000  Uiso   1.00
O177   O     0.77501   0.97927   0.43454   0.00000  Uiso   1.00
O178   O     0.74276   0.70815   0.06596   0.00000  Uiso   1.00
N179   N     0.14139   0.91310   0.78430   0.00000  Uiso   1.00
N180   N     0.70182   0.98450   0.55819   0.00000  Uiso   1.00
N181   N     0.67888   0.79130   0.00813   0.00000  Uiso   1.00
N182   N     0.13085   0.83149   0.71880   0.00000  Uiso   1.00
N183   N     0.69129   0.90289   0.49269   0.00000  Uiso   1.00
N184   N     0.66834   0.70969   0.94264   0.00000  Uiso   1.00
C185   C     0.47641   0.90224   0.28971   0.00000  Uiso   1.00
C186   C     0.58010   0.88491   0.27243   0.00000  Uiso   1.00
C187   C     0.66140   0.91580   0.29435   0.00000  Uiso   1.00
C188   C     0.74980   0.89269   0.27295   0.00000  Uiso   1.00
C189   C     0.90977   0.87373   0.25243   0.00000  Uiso   1.00
C190   C     0.42575   0.90463   0.20996   0.00000  Uiso   1.00
C191   C     0.37727   0.95211   0.17936   0.00000  Uiso   1.00
C192   C     0.33572   0.94559   0.10538   0.00000  Uiso   1.00
C193   C     0.25600   0.95723   0.98791   0.00000  Uiso   1.00
C194   C     0.43188   0.85140   0.33399   0.00000  Uiso   1.00
C195   C     0.38853   0.85413   0.40768   0.00000  Uiso   1.00
C196   C     0.35212   0.80281   0.43811   0.00000  Uiso   1.00
C197   C     0.28192   0.73181   0.51322   0.00000  Uiso   1.00
C198   C     0.48881   0.80625   0.21273   0.00000  Uiso   1.00
C199   C     0.58683   0.83277   0.23061   0.00000  Uiso   1.00
C200   C     0.67512   0.80960   0.20918   0.00000  Uiso   1.00
C201   C     0.75655   0.84046   0.23106   0.00000  Uiso   1.00
C202   C     0.43248   0.85249   0.16814   0.00000  Uiso   1.00
C203   C     0.39099   0.84590   0.09419   0.00000  Uiso   1.00
C204   C     0.34246   0.89336   0.06349   0.00000  Uiso   1.00
C205   C     0.43861   0.79926   0.29218   0.00000  Uiso   1.00
C206   C     0.40225   0.74793   0.32251   0.00000  Uiso   1.00
C207   C     0.35886   0.75057   0.39623   0.00000  Uiso   1.00
H208   H     0.47116   0.94283   0.32226   0.00000  Uiso   1.00
H209   H     0.65616   0.95616   0.32670   0.00000  Uiso   1.00
H210   H     0.37206   0.99245   0.21174   0.00000  Uiso   1.00
H211   H     0.38333   0.89449   0.44002   0.00000  Uiso   1.00
H212   H     0.86423   0.94795   0.31315   0.00000  Uiso   1.00
H213   H     0.26517   0.02446   0.07076   0.00000  Uiso   1.00
H214   H     0.28892   0.81789   0.55213   0.00000  Uiso   1.00
H215   H     0.49405   0.76565   0.18018   0.00000  Uiso   1.00
H216   H     0.68031   0.76925   0.17682   0.00000  Uiso   1.00
H217   H     0.39621   0.80555   0.06185   0.00000  Uiso   1.00
H218   H     0.40748   0.70759   0.29013   0.00000  Uiso   1.00
H219   H     0.88384   0.79625   0.19150   0.00000  Uiso   1.00
H220   H     0.28476   0.87277   0.94911   0.00000  Uiso   1.00
H221   H     0.30853   0.66620   0.43048   0.00000  Uiso   1.00
O222   O     0.99615   0.87767   0.25266   0.00000  Uiso   1.00
O223   O     0.21018   0.97806   0.93466   0.00000  Uiso   1.00
O224   O     0.24136   0.70705   0.56621   0.00000  Uiso   1.00
N225   N     0.84329   0.91174   0.28500   0.00000  Uiso   1.00
N226   N     0.28321   0.98329   0.05837   0.00000  Uiso   1.00
N227   N     0.30540   0.79017   0.50840   0.00000  Uiso   1.00
N228   N     0.85383   0.83012   0.21954   0.00000  Uiso   1.00
N229   N     0.29375   0.90166   0.99291   0.00000  Uiso   1.00
N230   N     0.31594   0.70854   0.44294   0.00000  Uiso   1.00
C231   C     0.00825   0.59653   0.21066   0.00000  Uiso   1.00
C232   C     0.90457   0.61383   0.22805   0.00000  Uiso   1.00
C233   C     0.82326   0.58290   0.20619   0.00000  Uiso   1.00
C234   C     0.73487   0.60598   0.22767   0.00000  Uiso   1.00
C235   C     0.57491   0.62489   0.24834   0.00000  Uiso   1.00
C236   C     0.05902   0.59414   0.29037   0.00000  Uiso   1.00
C237   C     0.10758   0.54667   0.32091   0.00000  Uiso   1.00
C238   C     0.14922   0.55319   0.39486   0.00000  Uiso   1.00
C239   C     0.22910   0.54155   0.51226   0.00000  Uiso   1.00
C240   C     0.05268   0.64739   0.16637   0.00000  Uiso   1.00
C241   C     0.09593   0.64469   0.09264   0.00000  Uiso   1.00
C242   C     0.13226   0.69603   0.06219   0.00000  Uiso   1.00
C243   C     0.20229   0.76707   0.98705   0.00000  Uiso   1.00
C244   C     0.99586   0.69250   0.28769   0.00000  Uiso   1.00
C245   C     0.89784   0.66595   0.26989   0.00000  Uiso   1.00
C246   C     0.80956   0.68909   0.29141   0.00000  Uiso   1.00
C247   C     0.72813   0.65821   0.26958   0.00000  Uiso   1.00
C248   C     0.05229   0.64627   0.33221   0.00000  Uiso   1.00
C249   C     0.09387   0.65286   0.40613   0.00000  Uiso   1.00
C250   C     0.14248   0.60541   0.43677   0.00000  Uiso   1.00
C251   C     0.04595   0.69952   0.20820   0.00000  Uiso   1.00
C252   C     0.08222   0.75087   0.17786   0.00000  Uiso   1.00
C253   C     0.12552   0.74825   0.10410   0.00000  Uiso   1.00
H254   H     0.01349   0.55595   0.17810   0.00000  Uiso   1.00
H255   H     0.82850   0.54256   0.17382   0.00000  Uiso   1.00
H256   H     0.11278   0.50634   0.28852   0.00000  Uiso   1.00
H257   H     0.10113   0.60434   0.06028   0.00000  Uiso   1.00
H258   H     0.62043   0.55070   0.18755   0.00000  Uiso   1.00
H259   H     0.21989   0.47433   0.42939   0.00000  Uiso   1.00
H260   H     0.19532   0.68099   0.94811   0.00000  Uiso   1.00
H261   H     0.99063   0.73309   0.32027   0.00000  Uiso   1.00
H262   H     0.80437   0.72943   0.32379   0.00000  Uiso   1.00
H263   H     0.08866   0.69320   0.43849   0.00000  Uiso   1.00
H264   H     0.07700   0.79121   0.21025   0.00000  Uiso   1.00
H265   H     0.60085   0.70237   0.30927   0.00000  Uiso   1.00
H266   H     0.20031   0.62600   0.55111   0.00000  Uiso   1.00
H267   H     0.17573   0.83265   0.06984   0.00000  Uiso   1.00
O268   O     0.48853   0.62092   0.24818   0.00000  Uiso   1.00
O269   O     0.27501   0.52073   0.56546   0.00000  Uiso   1.00
O270   O     0.24276   0.79185   0.93404   0.00000  Uiso   1.00
N271   N     0.64139   0.58690   0.21570   0.00000  Uiso   1.00
N272   N     0.20182   0.51550   0.44181   0.00000  Uiso   1.00
N273   N     0.17888   0.70870   0.99187   0.00000  Uiso   1.00
N274   N     0.63085   0.66851   0.28120   0.00000  Uiso   1.00
N275   N     0.19129   0.59711   0.50731   0.00000  Uiso   1.00
N276   N     0.16834   0.79031   0.05736   0.00000  Uiso   1.00
C277   C     0.52359   0.09776   0.28971   0.00000  Uiso   1.00
C278   C     0.41990   0.11509   0.27243   0.00000  Uiso   1.00
C279   C     0.33860   0.08420   0.29435   0.00000  Uiso   1.00
C280   C     0.25020   0.10731   0.27295   0.00000  Uiso   1.00
C281   C     0.09023   0.12627   0.25243   0.00000  Uiso   1.00
C282   C     0.57425   0.09537   0.20996   0.00000  Uiso   1.00
C283   C     0.62273   0.04789   0.17936   0.00000  Uiso   1.00
C284   C     0.66428   0.05441   0.10538   0.00000  Uiso   1.00
C285   C     0.74400   0.04277   0.98791   0.00000  Uiso   1.00
C286   C     0.56812   0.14860   0.33399   0.00000  Uiso   1.00
C287   C     0.61147   0.14587   0.40768   0.00000  Uiso   1.00
C288   C     0.64788   0.19719   0.43811   0.00000  Uiso   1.00
C289   C     0.71808   0.26819   0.51322   0.00000  Uiso   1.00
C290   C     0.51119   0.19375   0.21273   0.00000  Uiso   1.00
C291   C     0.41317   0.16723   0.23061   0.00000  Uiso   1.00
C292   C     0.32488   0.19040   0.20918   0.00000  Uiso   1.00
C293   C     0.24345   0.15954   0.23106   0.00000  Uiso   1.00
C294   C     0.56752   0.14751   0.16814   0.00000  Uiso   1.00
C295   C     0.60901   0.15410   0.09419   0.00000  Uiso   1.00
C296   C     0.65754   0.10664   0.06349   0.00000  Uiso   1.00
C297   C     0.56139   0.20074   0.29218   0.00000  Uiso   1.00
C298   C     0.59775   0.25207   0.32251   0.00000  Uiso   1.00
C299   C     0.64114   0.24943   0.39623   0.00000  Uiso   1.00
H300   H     0.52884   0.05717   0.32226   0.00000  Uiso   1.00
H301   H     0.34384   0.04384   0.32670   0.00000  Uiso   1.00
H302   H     0.62794   0.00755   0.21174   0.00000  Uiso   1.00
H303   H     0.61667   0.10551   0.44002   0.00000  Uiso   1.00
H304   H     0.13577   0.05205   0.31315   0.00000  Uiso   1.00
H305   H     0.73483   0.97554   0.07076   0.00000  Uiso   1.00
H306   H     0.71108   0.18211   0.55213   0.00000  Uiso   1.00
H307   H     0.50595   0.23435   0.18018   0.00000  Uiso   1.00
H308   H     0.31969   0.23075   0.17682   0.00000  Uiso   1.00
H309   H     0.60379   0.19445   0.06185   0.00000  Uiso   1.00
H310   H     0.59252   0.29241   0.29013   0.00000  Uiso   1.00
H311   H     0.11616   0.20375   0.19150   0.00000  Uiso   1.00
H312   H     0.71524   0.12723   0.94911   0.00000  Uiso   1.00
H313   H     0.69147   0.33380   0.43048   0.00000  Uiso   1.00
O314   O     0.00385   0.12233   0.25266   0.00000  Uiso   1.00
O315   O     0.78982   0.02194   0.93466   0.00000  Uiso   1.00
O316   O     0.75864   0.29295   0.56621   0.00000  Uiso   1.00
N317   N     0.15671   0.08826   0.28500   0.00000  Uiso   1.00
N318   N     0.71679   0.01671   0.05837   0.00000  Uiso   1.00
N319   N     0.69460   0.20983   0.50840   0.00000  Uiso   1.00
N320   N     0.14617   0.16988   0.21954   0.00000  Uiso   1.00
N321   N     0.70625   0.09834   0.99291   0.00000  Uiso   1.00
N322   N     0.68406   0.29146   0.44294   0.00000  Uiso   1.00
C323   C     0.99175   0.40347   0.21066   0.00000  Uiso   1.00
C324   C     0.09543   0.38617   0.22805   0.00000  Uiso   1.00
C325   C     0.17674   0.41710   0.20619   0.00000  Uiso   1.00
C326   C     0.26513   0.39402   0.22767   0.00000  Uiso   1.00
C327   C     0.42509   0.37511   0.24834   0.00000  Uiso   1.00
C328   C     0.94098   0.40586   0.29037   0.00000  Uiso   1.00
C329   C     0.89242   0.45333   0.32091   0.00000  Uiso   1.00
C330   C     0.85078   0.44681   0.39486   0.00000  Uiso   1.00
C331   C     0.77090   0.45845   0.51226   0.00000  Uiso   1.00
C332   C     0.94732   0.35261   0.16637   0.00000  Uiso   1.00
C333   C     0.90407   0.35531   0.09264   0.00000  Uiso   1.00
C334   C     0.86774   0.30397   0.06219   0.00000  Uiso   1.00
C335   C     0.79771   0.23293   0.98705   0.00000  Uiso   1.00
C336   C     0.00414   0.30750   0.28769   0.00000  Uiso   1.00
C337   C     0.10216   0.33405   0.26989   0.00000  Uiso   1.00
C338   C     0.19044   0.31091   0.29141   0.00000  Uiso   1.00
C339   C     0.27187   0.34179   0.26958   0.00000  Uiso   1.00
C340   C     0.94771   0.35373   0.33221   0.00000  Uiso   1.00
C341   C     0.90613   0.34714   0.40613   0.00000  Uiso   1.00
C342   C     0.85752   0.39459   0.43677   0.00000  Uiso   1.00
C343   C     0.95405   0.30048   0.20820   0.00000  Uiso   1.00
C344   C     0.91778   0.24913   0.17786   0.00000  Uiso   1.00
C345   C     0.87448   0.25175   0.10410   0.00000  Uiso   1.00
H346   H     0.98651   0.44405   0.17810   0.00000  Uiso   1.00
H347   H     0.17150   0.45744   0.17382   0.00000  Uiso   1.00
H348   H     0.88722   0.49366   0.28852   0.00000  Uiso   1.00
H349   H     0.89887   0.39566   0.06028   0.00000  Uiso   1.00
H350   H     0.37957   0.44930   0.18755   0.00000  Uiso   1.00
H351   H     0.78011   0.52567   0.42939   0.00000  Uiso   1.00
H352   H     0.80468   0.31901   0.94811   0.00000  Uiso   1.00
H353   H     0.00937   0.26691   0.32027   0.00000  Uiso   1.00
H354   H     0.19563   0.27057   0.32379   0.00000  Uiso   1.00
H355   H     0.91134   0.30680   0.43849   0.00000  Uiso   1.00
H356   H     0.92300   0.20879   0.21025   0.00000  Uiso   1.00
H357   H     0.39915   0.29763   0.30927   0.00000  Uiso   1.00
H358   H     0.79969   0.37400   0.55111   0.00000  Uiso   1.00
H359   H     0.82427   0.16735   0.06984   0.00000  Uiso   1.00
O360   O     0.51147   0.37908   0.24818   0.00000  Uiso   1.00
O361   O     0.72499   0.47927   0.56546   0.00000  Uiso   1.00
O362   O     0.75724   0.20815   0.93404   0.00000  Uiso   1.00
N363   N     0.35861   0.41310   0.21570   0.00000  Uiso   1.00
N364   N     0.79818   0.48450   0.44181   0.00000  Uiso   1.00
N365   N     0.82112   0.29130   0.99187   0.00000  Uiso   1.00
N366   N     0.36915   0.33149   0.28120   0.00000  Uiso   1.00
N367   N     0.80871   0.40289   0.50731   0.00000  Uiso   1.00
N368   N     0.83166   0.20969   0.05736   0.00000  Uiso   1.00
