data_job_05463
_audit_creation_date              2018-12-19
_audit_creation_method            'Materials Studio'
_symmetry_space_group_name_H-M    'P1'
_symmetry_Int_Tables_number       1
_symmetry_cell_setting            triclinic
loop_
_symmetry_equiv_pos_as_xyz
  x,y,z
_cell_length_a                    20.1889
_cell_length_b                    9.5741
_cell_length_c                    25.0398
_cell_angle_alpha                 90.0000
_cell_angle_beta                  90.0000
_cell_angle_gamma                 90.0000
loop_
_atom_site_label
_atom_site_type_symbol
_atom_site_fract_x
_atom_site_fract_y
_atom_site_fract_z
_atom_site_U_iso_or_equiv
_atom_site_adp_type
_atom_site_occupancy
C1     C     0.10852   0.28776   0.41403   0.00000  Uiso   1.00
C2     C     0.16730   0.27727   0.45207   0.00000  Uiso   1.00
C3     C     0.17087   0.19230   0.49688   0.00000  Uiso   1.00
C4     C     0.22894   0.19777   0.52650   0.00000  Uiso   1.00
C5     C     0.31219   0.16825   0.58782   0.00000  Uiso   1.00
C6     C     0.08903   0.44162   0.41288   0.00000  Uiso   1.00
C7     C     0.02679   0.49480   0.42472   0.00000  Uiso   1.00
C8     C     0.01898   0.63862   0.42135   0.00000  Uiso   1.00
C9     C     0.98071   0.86423   0.42178   0.00000  Uiso   1.00
C10    C     0.13556   0.25462   0.35860   0.00000  Uiso   1.00
C11    C     0.11244   0.15060   0.32479   0.00000  Uiso   1.00
C12    C     0.14379   0.13699   0.27571   0.00000  Uiso   1.00
C13    C     0.17776   0.07226   0.19187   0.00000  Uiso   1.00
C14    C     0.20531   0.44858   0.38697   0.00000  Uiso   1.00
C15    C     0.21986   0.36463   0.43737   0.00000  Uiso   1.00
C16    C     0.27795   0.37023   0.46694   0.00000  Uiso   1.00
C17    C     0.28160   0.28527   0.51178   0.00000  Uiso   1.00
C18    C     0.14160   0.52897   0.39818   0.00000  Uiso   1.00
C19    C     0.13387   0.67273   0.39478   0.00000  Uiso   1.00
C20    C     0.07164   0.72613   0.40663   0.00000  Uiso   1.00
C21    C     0.18813   0.34197   0.34390   0.00000  Uiso   1.00
C22    C     0.21952   0.32853   0.29486   0.00000  Uiso   1.00
C23    C     0.19645   0.22450   0.26099   0.00000  Uiso   1.00
H24    H     0.06760   0.21976   0.42547   0.00000  Uiso   1.00
H25    H     0.13017   0.12472   0.50824   0.00000  Uiso   1.00
H26    H     0.98612   0.42718   0.43609   0.00000  Uiso   1.00
H27    H     0.07176   0.08302   0.33618   0.00000  Uiso   1.00
H28    H     0.22273   0.05791   0.59354   0.00000  Uiso   1.00
H29    H     0.91898   0.69565   0.44139   0.00000  Uiso   1.00
H30    H     0.09955   0.96994   0.23071   0.00000  Uiso   1.00
H31    H     0.24623   0.51660   0.37552   0.00000  Uiso   1.00
H32    H     0.31862   0.43784   0.45555   0.00000  Uiso   1.00
H33    H     0.17456   0.74030   0.38341   0.00000  Uiso   1.00
H34    H     0.26020   0.39614   0.28350   0.00000  Uiso   1.00
H35    H     0.37567   0.31205   0.55077   0.00000  Uiso   1.00
H36    H     0.07192   0.94980   0.39863   0.00000  Uiso   1.00
H37    H     0.25250   0.22408   0.18795   0.00000  Uiso   1.00
O38    O     0.34358   0.12785   0.62571   0.00000  Uiso   1.00
O39    O     0.94508   0.96454   0.42609   0.00000  Uiso   1.00
O40    O     0.18199   0.01241   0.14969   0.00000  Uiso   1.00
N41    N     0.24879   0.12851   0.57248   0.00000  Uiso   1.00
N42    N     0.96481   0.72477   0.43024   0.00000  Uiso   1.00
N43    N     0.13362   0.04630   0.23327   0.00000  Uiso   1.00
N44    N     0.33109   0.26526   0.54947   0.00000  Uiso   1.00
N45    N     0.04711   0.86152   0.40723   0.00000  Uiso   1.00
N46    N     0.21592   0.18305   0.21026   0.00000  Uiso   1.00
C47    C     0.39148   0.21224   0.91403   0.00000  Uiso   1.00
C48    C     0.33270   0.22273   0.95207   0.00000  Uiso   1.00
C49    C     0.32913   0.30770   0.99688   0.00000  Uiso   1.00
C50    C     0.27106   0.30223   0.02650   0.00000  Uiso   1.00
C51    C     0.18781   0.33175   0.08782   0.00000  Uiso   1.00
C52    C     0.41097   0.05838   0.91288   0.00000  Uiso   1.00
C53    C     0.47321   0.00520   0.92472   0.00000  Uiso   1.00
C54    C     0.48102   0.86138   0.92135   0.00000  Uiso   1.00
C55    C     0.51929   0.63577   0.92178   0.00000  Uiso   1.00
C56    C     0.36444   0.24538   0.85860   0.00000  Uiso   1.00
C57    C     0.38756   0.34940   0.82479   0.00000  Uiso   1.00
C58    C     0.35621   0.36301   0.77571   0.00000  Uiso   1.00
C59    C     0.32224   0.42774   0.69187   0.00000  Uiso   1.00
C60    C     0.29469   0.05142   0.88697   0.00000  Uiso   1.00
C61    C     0.28014   0.13537   0.93737   0.00000  Uiso   1.00
C62    C     0.22205   0.12977   0.96694   0.00000  Uiso   1.00
C63    C     0.21840   0.21473   0.01178   0.00000  Uiso   1.00
C64    C     0.35840   0.97103   0.89818   0.00000  Uiso   1.00
C65    C     0.36613   0.82727   0.89478   0.00000  Uiso   1.00
C66    C     0.42836   0.77387   0.90663   0.00000  Uiso   1.00
C67    C     0.31187   0.15803   0.84390   0.00000  Uiso   1.00
C68    C     0.28048   0.17147   0.79486   0.00000  Uiso   1.00
C69    C     0.30355   0.27550   0.76099   0.00000  Uiso   1.00
H70    H     0.43240   0.28024   0.92547   0.00000  Uiso   1.00
H71    H     0.36983   0.37528   0.00824   0.00000  Uiso   1.00
H72    H     0.51388   0.07282   0.93609   0.00000  Uiso   1.00
H73    H     0.42824   0.41698   0.83618   0.00000  Uiso   1.00
H74    H     0.27727   0.44209   0.09354   0.00000  Uiso   1.00
H75    H     0.58102   0.80435   0.94139   0.00000  Uiso   1.00
H76    H     0.40045   0.53006   0.73071   0.00000  Uiso   1.00
H77    H     0.25377   0.98340   0.87552   0.00000  Uiso   1.00
H78    H     0.18138   0.06216   0.95555   0.00000  Uiso   1.00
H79    H     0.32544   0.75970   0.88341   0.00000  Uiso   1.00
H80    H     0.23980   0.10386   0.78350   0.00000  Uiso   1.00
H81    H     0.12433   0.18795   0.05077   0.00000  Uiso   1.00
H82    H     0.42808   0.55020   0.89863   0.00000  Uiso   1.00
H83    H     0.24750   0.27592   0.68795   0.00000  Uiso   1.00
O84    O     0.15642   0.37215   0.12571   0.00000  Uiso   1.00
O85    O     0.55492   0.53546   0.92609   0.00000  Uiso   1.00
O86    O     0.31801   0.48759   0.64969   0.00000  Uiso   1.00
N87    N     0.25121   0.37149   0.07248   0.00000  Uiso   1.00
N88    N     0.53519   0.77523   0.93024   0.00000  Uiso   1.00
N89    N     0.36638   0.45370   0.73327   0.00000  Uiso   1.00
N90    N     0.16891   0.23474   0.04947   0.00000  Uiso   1.00
N91    N     0.45289   0.63848   0.90723   0.00000  Uiso   1.00
N92    N     0.28408   0.31695   0.71026   0.00000  Uiso   1.00
C93    C     0.89148   0.28776   0.08597   0.00000  Uiso   1.00
C94    C     0.83270   0.27727   0.04793   0.00000  Uiso   1.00
C95    C     0.82913   0.19230   0.00312   0.00000  Uiso   1.00
C96    C     0.77106   0.19777   0.97350   0.00000  Uiso   1.00
C97    C     0.68781   0.16825   0.91218   0.00000  Uiso   1.00
C98    C     0.91097   0.44162   0.08712   0.00000  Uiso   1.00
C99    C     0.97321   0.49480   0.07528   0.00000  Uiso   1.00
C100   C     0.98102   0.63862   0.07865   0.00000  Uiso   1.00
C101   C     0.01929   0.86423   0.07822   0.00000  Uiso   1.00
C102   C     0.86444   0.25462   0.14140   0.00000  Uiso   1.00
C103   C     0.88756   0.15060   0.17521   0.00000  Uiso   1.00
C104   C     0.85621   0.13699   0.22429   0.00000  Uiso   1.00
C105   C     0.82224   0.07226   0.30813   0.00000  Uiso   1.00
C106   C     0.79469   0.44858   0.11303   0.00000  Uiso   1.00
C107   C     0.78014   0.36463   0.06263   0.00000  Uiso   1.00
C108   C     0.72205   0.37023   0.03306   0.00000  Uiso   1.00
C109   C     0.71840   0.28527   0.98822   0.00000  Uiso   1.00
C110   C     0.85840   0.52897   0.10182   0.00000  Uiso   1.00
C111   C     0.86613   0.67273   0.10522   0.00000  Uiso   1.00
C112   C     0.92836   0.72613   0.09337   0.00000  Uiso   1.00
C113   C     0.81187   0.34197   0.15610   0.00000  Uiso   1.00
C114   C     0.78048   0.32853   0.20514   0.00000  Uiso   1.00
C115   C     0.80355   0.22450   0.23901   0.00000  Uiso   1.00
H116   H     0.93240   0.21976   0.07453   0.00000  Uiso   1.00
H117   H     0.86983   0.12472   0.99176   0.00000  Uiso   1.00
H118   H     0.01388   0.42718   0.06391   0.00000  Uiso   1.00
H119   H     0.92824   0.08302   0.16382   0.00000  Uiso   1.00
H120   H     0.77727   0.05791   0.90646   0.00000  Uiso   1.00
H121   H     0.08102   0.69565   0.05861   0.00000  Uiso   1.00
H122   H     0.90045   0.96994   0.26929   0.00000  Uiso   1.00
H123   H     0.75377   0.51660   0.12448   0.00000  Uiso   1.00
H124   H     0.68138   0.43784   0.04445   0.00000  Uiso   1.00
H125   H     0.82544   0.74030   0.11659   0.00000  Uiso   1.00
H126   H     0.73980   0.39614   0.21650   0.00000  Uiso   1.00
H127   H     0.62433   0.31205   0.94923   0.00000  Uiso   1.00
H128   H     0.92808   0.94980   0.10137   0.00000  Uiso   1.00
H129   H     0.74750   0.22408   0.31205   0.00000  Uiso   1.00
O130   O     0.65642   0.12785   0.87429   0.00000  Uiso   1.00
O131   O     0.05492   0.96454   0.07391   0.00000  Uiso   1.00
O132   O     0.81801   0.01241   0.35031   0.00000  Uiso   1.00
N133   N     0.75121   0.12851   0.92752   0.00000  Uiso   1.00
N134   N     0.03519   0.72477   0.06976   0.00000  Uiso   1.00
N135   N     0.86638   0.04630   0.26673   0.00000  Uiso   1.00
N136   N     0.66891   0.26526   0.95053   0.00000  Uiso   1.00
N137   N     0.95289   0.86152   0.09277   0.00000  Uiso   1.00
N138   N     0.78408   0.18305   0.28974   0.00000  Uiso   1.00
C139   C     0.60852   0.21224   0.58597   0.00000  Uiso   1.00
C140   C     0.66730   0.22273   0.54793   0.00000  Uiso   1.00
C141   C     0.67087   0.30770   0.50312   0.00000  Uiso   1.00
C142   C     0.72894   0.30223   0.47350   0.00000  Uiso   1.00
C143   C     0.81219   0.33175   0.41218   0.00000  Uiso   1.00
C144   C     0.58903   0.05838   0.58712   0.00000  Uiso   1.00
C145   C     0.52679   0.00520   0.57528   0.00000  Uiso   1.00
C146   C     0.51898   0.86138   0.57865   0.00000  Uiso   1.00
C147   C     0.48071   0.63577   0.57822   0.00000  Uiso   1.00
C148   C     0.63556   0.24538   0.64140   0.00000  Uiso   1.00
C149   C     0.61244   0.34940   0.67521   0.00000  Uiso   1.00
C150   C     0.64379   0.36301   0.72429   0.00000  Uiso   1.00
C151   C     0.67776   0.42774   0.80813   0.00000  Uiso   1.00
C152   C     0.70531   0.05142   0.61303   0.00000  Uiso   1.00
C153   C     0.71986   0.13537   0.56263   0.00000  Uiso   1.00
C154   C     0.77795   0.12977   0.53306   0.00000  Uiso   1.00
C155   C     0.78160   0.21473   0.48822   0.00000  Uiso   1.00
C156   C     0.64160   0.97103   0.60182   0.00000  Uiso   1.00
C157   C     0.63387   0.82727   0.60522   0.00000  Uiso   1.00
C158   C     0.57164   0.77387   0.59337   0.00000  Uiso   1.00
C159   C     0.68813   0.15803   0.65610   0.00000  Uiso   1.00
C160   C     0.71952   0.17147   0.70514   0.00000  Uiso   1.00
C161   C     0.69645   0.27550   0.73901   0.00000  Uiso   1.00
H162   H     0.56760   0.28024   0.57453   0.00000  Uiso   1.00
H163   H     0.63017   0.37528   0.49176   0.00000  Uiso   1.00
H164   H     0.48612   0.07282   0.56391   0.00000  Uiso   1.00
H165   H     0.57176   0.41698   0.66382   0.00000  Uiso   1.00
H166   H     0.72273   0.44209   0.40646   0.00000  Uiso   1.00
H167   H     0.41898   0.80435   0.55861   0.00000  Uiso   1.00
H168   H     0.59955   0.53006   0.76929   0.00000  Uiso   1.00
H169   H     0.74623   0.98340   0.62448   0.00000  Uiso   1.00
H170   H     0.81862   0.06216   0.54445   0.00000  Uiso   1.00
H171   H     0.67456   0.75970   0.61659   0.00000  Uiso   1.00
H172   H     0.76020   0.10386   0.71650   0.00000  Uiso   1.00
H173   H     0.87567   0.18795   0.44923   0.00000  Uiso   1.00
H174   H     0.57192   0.55020   0.60137   0.00000  Uiso   1.00
H175   H     0.75250   0.27592   0.81205   0.00000  Uiso   1.00
O176   O     0.84358   0.37215   0.37429   0.00000  Uiso   1.00
O177   O     0.44508   0.53546   0.57391   0.00000  Uiso   1.00
O178   O     0.68199   0.48759   0.85031   0.00000  Uiso   1.00
N179   N     0.74879   0.37149   0.42752   0.00000  Uiso   1.00
N180   N     0.46481   0.77523   0.56976   0.00000  Uiso   1.00
N181   N     0.63362   0.45370   0.76673   0.00000  Uiso   1.00
N182   N     0.83109   0.23474   0.45053   0.00000  Uiso   1.00
N183   N     0.54711   0.63848   0.59277   0.00000  Uiso   1.00
N184   N     0.71592   0.31695   0.78974   0.00000  Uiso   1.00
C185   C     0.89148   0.71224   0.58597   0.00000  Uiso   1.00
C186   C     0.83270   0.72273   0.54793   0.00000  Uiso   1.00
C187   C     0.82913   0.80770   0.50312   0.00000  Uiso   1.00
C188   C     0.77106   0.80223   0.47350   0.00000  Uiso   1.00
C189   C     0.68781   0.83175   0.41218   0.00000  Uiso   1.00
C190   C     0.91097   0.55838   0.58712   0.00000  Uiso   1.00
C191   C     0.97321   0.50520   0.57528   0.00000  Uiso   1.00
C192   C     0.98102   0.36138   0.57865   0.00000  Uiso   1.00
C193   C     0.01929   0.13577   0.57822   0.00000  Uiso   1.00
C194   C     0.86444   0.74538   0.64140   0.00000  Uiso   1.00
C195   C     0.88756   0.84940   0.67521   0.00000  Uiso   1.00
C196   C     0.85621   0.86301   0.72429   0.00000  Uiso   1.00
C197   C     0.82224   0.92774   0.80813   0.00000  Uiso   1.00
C198   C     0.79469   0.55142   0.61303   0.00000  Uiso   1.00
C199   C     0.78014   0.63537   0.56263   0.00000  Uiso   1.00
C200   C     0.72205   0.62977   0.53306   0.00000  Uiso   1.00
C201   C     0.71840   0.71473   0.48822   0.00000  Uiso   1.00
C202   C     0.85840   0.47103   0.60182   0.00000  Uiso   1.00
C203   C     0.86613   0.32727   0.60522   0.00000  Uiso   1.00
C204   C     0.92836   0.27387   0.59337   0.00000  Uiso   1.00
C205   C     0.81187   0.65803   0.65610   0.00000  Uiso   1.00
C206   C     0.78048   0.67147   0.70514   0.00000  Uiso   1.00
C207   C     0.80355   0.77550   0.73901   0.00000  Uiso   1.00
H208   H     0.93240   0.78024   0.57453   0.00000  Uiso   1.00
H209   H     0.86983   0.87528   0.49176   0.00000  Uiso   1.00
H210   H     0.01388   0.57282   0.56391   0.00000  Uiso   1.00
H211   H     0.92824   0.91698   0.66382   0.00000  Uiso   1.00
H212   H     0.77727   0.94209   0.40646   0.00000  Uiso   1.00
H213   H     0.08102   0.30435   0.55861   0.00000  Uiso   1.00
H214   H     0.90045   0.03006   0.76929   0.00000  Uiso   1.00
H215   H     0.75377   0.48340   0.62448   0.00000  Uiso   1.00
H216   H     0.68138   0.56216   0.54445   0.00000  Uiso   1.00
H217   H     0.82544   0.25970   0.61659   0.00000  Uiso   1.00
H218   H     0.73980   0.60386   0.71650   0.00000  Uiso   1.00
H219   H     0.62433   0.68795   0.44923   0.00000  Uiso   1.00
H220   H     0.92808   0.05020   0.60137   0.00000  Uiso   1.00
H221   H     0.74750   0.77592   0.81205   0.00000  Uiso   1.00
O222   O     0.65642   0.87215   0.37429   0.00000  Uiso   1.00
O223   O     0.05492   0.03546   0.57391   0.00000  Uiso   1.00
O224   O     0.81801   0.98759   0.85031   0.00000  Uiso   1.00
N225   N     0.75121   0.87149   0.42752   0.00000  Uiso   1.00
N226   N     0.03519   0.27523   0.56976   0.00000  Uiso   1.00
N227   N     0.86638   0.95370   0.76673   0.00000  Uiso   1.00
N228   N     0.66891   0.73474   0.45053   0.00000  Uiso   1.00
N229   N     0.95289   0.13848   0.59277   0.00000  Uiso   1.00
N230   N     0.78408   0.81695   0.78974   0.00000  Uiso   1.00
C231   C     0.60852   0.78776   0.08597   0.00000  Uiso   1.00
C232   C     0.66730   0.77727   0.04793   0.00000  Uiso   1.00
C233   C     0.67087   0.69230   0.00312   0.00000  Uiso   1.00
C234   C     0.72894   0.69777   0.97350   0.00000  Uiso   1.00
C235   C     0.81219   0.66825   0.91218   0.00000  Uiso   1.00
C236   C     0.58903   0.94162   0.08712   0.00000  Uiso   1.00
C237   C     0.52679   0.99480   0.07528   0.00000  Uiso   1.00
C238   C     0.51898   0.13862   0.07865   0.00000  Uiso   1.00
C239   C     0.48071   0.36423   0.07822   0.00000  Uiso   1.00
C240   C     0.63556   0.75462   0.14140   0.00000  Uiso   1.00
C241   C     0.61244   0.65060   0.17521   0.00000  Uiso   1.00
C242   C     0.64379   0.63699   0.22429   0.00000  Uiso   1.00
C243   C     0.67776   0.57226   0.30813   0.00000  Uiso   1.00
C244   C     0.70531   0.94858   0.11303   0.00000  Uiso   1.00
C245   C     0.71986   0.86463   0.06263   0.00000  Uiso   1.00
C246   C     0.77795   0.87023   0.03306   0.00000  Uiso   1.00
C247   C     0.78160   0.78527   0.98822   0.00000  Uiso   1.00
C248   C     0.64160   0.02897   0.10182   0.00000  Uiso   1.00
C249   C     0.63387   0.17273   0.10522   0.00000  Uiso   1.00
C250   C     0.57164   0.22613   0.09337   0.00000  Uiso   1.00
C251   C     0.68813   0.84197   0.15610   0.00000  Uiso   1.00
C252   C     0.71952   0.82853   0.20514   0.00000  Uiso   1.00
C253   C     0.69645   0.72450   0.23901   0.00000  Uiso   1.00
H254   H     0.56760   0.71976   0.07453   0.00000  Uiso   1.00
H255   H     0.63017   0.62472   0.99176   0.00000  Uiso   1.00
H256   H     0.48612   0.92718   0.06391   0.00000  Uiso   1.00
H257   H     0.57176   0.58302   0.16382   0.00000  Uiso   1.00
H258   H     0.72273   0.55791   0.90646   0.00000  Uiso   1.00
H259   H     0.41898   0.19565   0.05861   0.00000  Uiso   1.00
H260   H     0.59955   0.46994   0.26929   0.00000  Uiso   1.00
H261   H     0.74623   0.01660   0.12448   0.00000  Uiso   1.00
H262   H     0.81862   0.93784   0.04445   0.00000  Uiso   1.00
H263   H     0.67456   0.24030   0.11659   0.00000  Uiso   1.00
H264   H     0.76020   0.89614   0.21650   0.00000  Uiso   1.00
H265   H     0.87567   0.81205   0.94923   0.00000  Uiso   1.00
H266   H     0.57192   0.44980   0.10137   0.00000  Uiso   1.00
H267   H     0.75250   0.72408   0.31205   0.00000  Uiso   1.00
O268   O     0.84358   0.62785   0.87429   0.00000  Uiso   1.00
O269   O     0.44508   0.46454   0.07391   0.00000  Uiso   1.00
O270   O     0.68199   0.51241   0.35031   0.00000  Uiso   1.00
N271   N     0.74879   0.62851   0.92752   0.00000  Uiso   1.00
N272   N     0.46481   0.22477   0.06976   0.00000  Uiso   1.00
N273   N     0.63362   0.54630   0.26673   0.00000  Uiso   1.00
N274   N     0.83109   0.76526   0.95053   0.00000  Uiso   1.00
N275   N     0.54711   0.36152   0.09277   0.00000  Uiso   1.00
N276   N     0.71592   0.68305   0.28974   0.00000  Uiso   1.00
C277   C     0.10852   0.71224   0.91403   0.00000  Uiso   1.00
C278   C     0.16730   0.72273   0.95207   0.00000  Uiso   1.00
C279   C     0.17087   0.80770   0.99688   0.00000  Uiso   1.00
C280   C     0.22894   0.80223   0.02650   0.00000  Uiso   1.00
C281   C     0.31219   0.83175   0.08782   0.00000  Uiso   1.00
C282   C     0.08903   0.55838   0.91288   0.00000  Uiso   1.00
C283   C     0.02679   0.50520   0.92472   0.00000  Uiso   1.00
C284   C     0.01898   0.36138   0.92135   0.00000  Uiso   1.00
C285   C     0.98071   0.13577   0.92178   0.00000  Uiso   1.00
C286   C     0.13556   0.74538   0.85860   0.00000  Uiso   1.00
C287   C     0.11244   0.84940   0.82479   0.00000  Uiso   1.00
C288   C     0.14379   0.86301   0.77571   0.00000  Uiso   1.00
C289   C     0.17776   0.92774   0.69187   0.00000  Uiso   1.00
C290   C     0.20531   0.55142   0.88697   0.00000  Uiso   1.00
C291   C     0.21986   0.63537   0.93737   0.00000  Uiso   1.00
C292   C     0.27795   0.62977   0.96694   0.00000  Uiso   1.00
C293   C     0.28160   0.71473   0.01178   0.00000  Uiso   1.00
C294   C     0.14160   0.47103   0.89818   0.00000  Uiso   1.00
C295   C     0.13387   0.32727   0.89478   0.00000  Uiso   1.00
C296   C     0.07164   0.27387   0.90663   0.00000  Uiso   1.00
C297   C     0.18813   0.65803   0.84390   0.00000  Uiso   1.00
C298   C     0.21952   0.67147   0.79486   0.00000  Uiso   1.00
C299   C     0.19645   0.77550   0.76099   0.00000  Uiso   1.00
H300   H     0.06760   0.78024   0.92547   0.00000  Uiso   1.00
H301   H     0.13017   0.87528   0.00824   0.00000  Uiso   1.00
H302   H     0.98612   0.57282   0.93609   0.00000  Uiso   1.00
H303   H     0.07176   0.91698   0.83618   0.00000  Uiso   1.00
H304   H     0.22273   0.94209   0.09354   0.00000  Uiso   1.00
H305   H     0.91898   0.30435   0.94139   0.00000  Uiso   1.00
H306   H     0.09955   0.03006   0.73071   0.00000  Uiso   1.00
H307   H     0.24623   0.48340   0.87552   0.00000  Uiso   1.00
H308   H     0.31862   0.56216   0.95555   0.00000  Uiso   1.00
H309   H     0.17456   0.25970   0.88341   0.00000  Uiso   1.00
H310   H     0.26020   0.60386   0.78350   0.00000  Uiso   1.00
H311   H     0.37567   0.68795   0.05077   0.00000  Uiso   1.00
H312   H     0.07192   0.05020   0.89863   0.00000  Uiso   1.00
H313   H     0.25250   0.77592   0.68795   0.00000  Uiso   1.00
O314   O     0.34358   0.87215   0.12571   0.00000  Uiso   1.00
O315   O     0.94508   0.03546   0.92609   0.00000  Uiso   1.00
O316   O     0.18199   0.98759   0.64969   0.00000  Uiso   1.00
N317   N     0.24879   0.87149   0.07248   0.00000  Uiso   1.00
N318   N     0.96481   0.27523   0.93024   0.00000  Uiso   1.00
N319   N     0.13362   0.95370   0.73327   0.00000  Uiso   1.00
N320   N     0.33109   0.73474   0.04947   0.00000  Uiso   1.00
N321   N     0.04711   0.13848   0.90723   0.00000  Uiso   1.00
N322   N     0.21592   0.81695   0.71026   0.00000  Uiso   1.00
C323   C     0.39148   0.78776   0.41403   0.00000  Uiso   1.00
C324   C     0.33270   0.77727   0.45207   0.00000  Uiso   1.00
C325   C     0.32913   0.69230   0.49688   0.00000  Uiso   1.00
C326   C     0.27106   0.69777   0.52650   0.00000  Uiso   1.00
C327   C     0.18781   0.66825   0.58782   0.00000  Uiso   1.00
C328   C     0.41097   0.94162   0.41288   0.00000  Uiso   1.00
C329   C     0.47321   0.99480   0.42472   0.00000  Uiso   1.00
C330   C     0.48102   0.13862   0.42135   0.00000  Uiso   1.00
C331   C     0.51929   0.36423   0.42178   0.00000  Uiso   1.00
C332   C     0.36444   0.75462   0.35860   0.00000  Uiso   1.00
C333   C     0.38756   0.65060   0.32479   0.00000  Uiso   1.00
C334   C     0.35621   0.63699   0.27571   0.00000  Uiso   1.00
C335   C     0.32224   0.57226   0.19187   0.00000  Uiso   1.00
C336   C     0.29469   0.94858   0.38697   0.00000  Uiso   1.00
C337   C     0.28014   0.86463   0.43737   0.00000  Uiso   1.00
C338   C     0.22205   0.87023   0.46694   0.00000  Uiso   1.00
C339   C     0.21840   0.78527   0.51178   0.00000  Uiso   1.00
C340   C     0.35840   0.02897   0.39818   0.00000  Uiso   1.00
C341   C     0.36613   0.17273   0.39478   0.00000  Uiso   1.00
C342   C     0.42836   0.22613   0.40663   0.00000  Uiso   1.00
C343   C     0.31187   0.84197   0.34390   0.00000  Uiso   1.00
C344   C     0.28048   0.82853   0.29486   0.00000  Uiso   1.00
C345   C     0.30355   0.72450   0.26099   0.00000  Uiso   1.00
H346   H     0.43240   0.71976   0.42547   0.00000  Uiso   1.00
H347   H     0.36983   0.62472   0.50824   0.00000  Uiso   1.00
H348   H     0.51388   0.92718   0.43609   0.00000  Uiso   1.00
H349   H     0.42824   0.58302   0.33618   0.00000  Uiso   1.00
H350   H     0.27727   0.55791   0.59354   0.00000  Uiso   1.00
H351   H     0.58102   0.19565   0.44139   0.00000  Uiso   1.00
H352   H     0.40045   0.46994   0.23071   0.00000  Uiso   1.00
H353   H     0.25377   0.01660   0.37552   0.00000  Uiso   1.00
H354   H     0.18138   0.93784   0.45555   0.00000  Uiso   1.00
H355   H     0.32544   0.24030   0.38341   0.00000  Uiso   1.00
H356   H     0.23980   0.89614   0.28350   0.00000  Uiso   1.00
H357   H     0.12433   0.81205   0.55077   0.00000  Uiso   1.00
H358   H     0.42808   0.44980   0.39863   0.00000  Uiso   1.00
H359   H     0.24750   0.72408   0.18795   0.00000  Uiso   1.00
O360   O     0.15642   0.62785   0.62571   0.00000  Uiso   1.00
O361   O     0.55492   0.46454   0.42609   0.00000  Uiso   1.00
O362   O     0.31801   0.51241   0.14969   0.00000  Uiso   1.00
N363   N     0.25121   0.62851   0.57248   0.00000  Uiso   1.00
N364   N     0.53519   0.22477   0.43024   0.00000  Uiso   1.00
N365   N     0.36638   0.54630   0.23327   0.00000  Uiso   1.00
N366   N     0.16891   0.76526   0.54947   0.00000  Uiso   1.00
N367   N     0.45289   0.36152   0.40723   0.00000  Uiso   1.00
N368   N     0.28408   0.68305   0.21026   0.00000  Uiso   1.00
