data_job_06169
_audit_creation_date              2018-12-19
_audit_creation_method            'Materials Studio'
_symmetry_space_group_name_H-M    'P1'
_symmetry_Int_Tables_number       1
_symmetry_cell_setting            triclinic
loop_
_symmetry_equiv_pos_as_xyz
  x,y,z
_cell_length_a                    8.7104
_cell_length_b                    21.7189
_cell_length_c                    22.8036
_cell_angle_alpha                 117.8880
_cell_angle_beta                  79.0472
_cell_angle_gamma                 91.1541
loop_
_atom_site_label
_atom_site_type_symbol
_atom_site_fract_x
_atom_site_fract_y
_atom_site_fract_z
_atom_site_U_iso_or_equiv
_atom_site_adp_type
_atom_site_occupancy
C1     C     0.50118   0.98541   0.66261   0.00000  Uiso   1.00
C2     C     0.45143   0.02335   0.73967   0.00000  Uiso   1.00
C3     C     0.30952   0.01909   0.77686   0.00000  Uiso   1.00
C4     C     0.28639   0.05782   0.84691   0.00000  Uiso   1.00
C5     C     0.19165   0.11045   0.96176   0.00000  Uiso   1.00
C6     C     0.54139   0.04196   0.64170   0.00000  Uiso   1.00
C7     C     0.47513   0.05333   0.59650   0.00000  Uiso   1.00
C8     C     0.52775   0.10772   0.58407   0.00000  Uiso   1.00
C9     C     0.57276   0.18921   0.54677   0.00000  Uiso   1.00
C10    C     0.65549   0.94326   0.64639   0.00000  Uiso   1.00
C11    C     0.68519   0.87165   0.60513   0.00000  Uiso   1.00
C12    C     0.83389   0.84295   0.59664   0.00000  Uiso   1.00
C13    C     0.05606   0.77119   0.56664   0.00000  Uiso   1.00
C14    C     0.71245   0.06178   0.72089   0.00000  Uiso   1.00
C15    C     0.56619   0.06483   0.77133   0.00000  Uiso   1.00
C16    C     0.54327   0.10358   0.84135   0.00000  Uiso   1.00
C17    C     0.40135   0.09937   0.87863   0.00000  Uiso   1.00
C18    C     0.65614   0.08344   0.67335   0.00000  Uiso   1.00
C19    C     0.70888   0.13782   0.66099   0.00000  Uiso   1.00
C20    C     0.64271   0.14928   0.61579   0.00000  Uiso   1.00
C21    C     0.77025   0.98474   0.67805   0.00000  Uiso   1.00
C22    C     0.91893   0.95614   0.66962   0.00000  Uiso   1.00
C23    C     0.94885   0.88450   0.62836   0.00000  Uiso   1.00
H24    H     0.41184   0.95312   0.63796   0.00000  Uiso   1.00
H25    H     0.22073   0.98698   0.75234   0.00000  Uiso   1.00
H26    H     0.38634   0.02122   0.57200   0.00000  Uiso   1.00
H27    H     0.59636   0.83957   0.58064   0.00000  Uiso   1.00
H28    H     0.05945   0.04284   0.89311   0.00000  Uiso   1.00
H29    H     0.40867   0.11501   0.51285   0.00000  Uiso   1.00
H30    H     0.85154   0.73196   0.53105   0.00000  Uiso   1.00
H31    H     0.80180   0.09408   0.74554   0.00000  Uiso   1.00
H32    H     0.63210   0.13568   0.86583   0.00000  Uiso   1.00
H33    H     0.79769   0.16991   0.68550   0.00000  Uiso   1.00
H34    H     0.00771   0.98826   0.69413   0.00000  Uiso   1.00
H35    H     0.39332   0.16353   0.98523   0.00000  Uiso   1.00
H36    H     0.74254   0.23569   0.60496   0.00000  Uiso   1.00
H37    H     0.18541   0.85265   0.62317   0.00000  Uiso   1.00
O38    O     0.10769   0.12803   0.01636   0.00000  Uiso   1.00
O39    O     0.56587   0.22270   0.51746   0.00000  Uiso   1.00
O40    O     0.14690   0.72015   0.54135   0.00000  Uiso   1.00
N41    N     0.16133   0.06553   0.89828   0.00000  Uiso   1.00
N42    N     0.48781   0.13300   0.54277   0.00000  Uiso   1.00
N43    N     0.90187   0.77489   0.55978   0.00000  Uiso   1.00
N44    N     0.34098   0.13047   0.94785   0.00000  Uiso   1.00
N45    N     0.66746   0.19794   0.59234   0.00000  Uiso   1.00
N46    N     0.08152   0.83983   0.60934   0.00000  Uiso   1.00
C47    C     0.17590   0.33742   0.32802   0.00000  Uiso   1.00
C48    C     0.19502   0.25777   0.29032   0.00000  Uiso   1.00
C49    C     0.08946   0.21434   0.25473   0.00000  Uiso   1.00
C50    C     0.12834   0.14287   0.22374   0.00000  Uiso   1.00
C51    C     0.13678   0.02329   0.16455   0.00000  Uiso   1.00
C52    C     0.18699   0.35868   0.40089   0.00000  Uiso   1.00
C53    C     0.07469   0.40010   0.45827   0.00000  Uiso   1.00
C54    C     0.10683   0.41359   0.52035   0.00000  Uiso   1.00
C55    C     0.10284   0.45072   0.63284   0.00000  Uiso   1.00
C56    C     0.32165   0.36175   0.29849   0.00000  Uiso   1.00
C57    C     0.32257   0.40578   0.26978   0.00000  Uiso   1.00
C58    C     0.46809   0.42187   0.24566   0.00000  Uiso   1.00
C59    C     0.67318   0.46378   0.19914   0.00000  Uiso   1.00
C60    C     0.43267   0.28772   0.33625   0.00000  Uiso   1.00
C61    C     0.33449   0.23078   0.29479   0.00000  Uiso   1.00
C62    C     0.37355   0.15935   0.26383   0.00000  Uiso   1.00
C63    C     0.26806   0.11582   0.22821   0.00000  Uiso   1.00
C64    C     0.32645   0.33169   0.40536   0.00000  Uiso   1.00
C65    C     0.35877   0.34512   0.46737   0.00000  Uiso   1.00
C66    C     0.24654   0.38654   0.52483   0.00000  Uiso   1.00
C67    C     0.46112   0.33476   0.30295   0.00000  Uiso   1.00
C68    C     0.60666   0.35079   0.27888   0.00000  Uiso   1.00
C69    C     0.60780   0.39483   0.25014   0.00000  Uiso   1.00
H70    H     0.06732   0.35844   0.32454   0.00000  Uiso   1.00
H71    H     0.98154   0.23525   0.25129   0.00000  Uiso   1.00
H72    H     0.96678   0.42099   0.45480   0.00000  Uiso   1.00
H73    H     0.21462   0.42666   0.26633   0.00000  Uiso   1.00
H74    H     0.94791   0.08676   0.17207   0.00000  Uiso   1.00
H75    H     0.91681   0.47843   0.60118   0.00000  Uiso   1.00
H76    H     0.43944   0.49039   0.20376   0.00000  Uiso   1.00
H77    H     0.54125   0.26671   0.33973   0.00000  Uiso   1.00
H78    H     0.48148   0.13848   0.26730   0.00000  Uiso   1.00
H79    H     0.46671   0.32422   0.47081   0.00000  Uiso   1.00
H80    H     0.71456   0.32989   0.28234   0.00000  Uiso   1.00
H81    H     0.35367   0.00822   0.18507   0.00000  Uiso   1.00
H82    H     0.32257   0.39989   0.61418   0.00000  Uiso   1.00
H83    H     0.84521   0.41185   0.21676   0.00000  Uiso   1.00
O84    O     0.10289   0.96480   0.13068   0.00000  Uiso   1.00
O85    O     0.06210   0.47866   0.69364   0.00000  Uiso   1.00
O86    O     0.74778   0.49434   0.17224   0.00000  Uiso   1.00
N87    N     0.05162   0.08588   0.18506   0.00000  Uiso   1.00
N88    N     0.02253   0.45205   0.58624   0.00000  Uiso   1.00
N89    N     0.51115   0.46325   0.21471   0.00000  Uiso   1.00
N90    N     0.26996   0.04361   0.19205   0.00000  Uiso   1.00
N91    N     0.24087   0.40979   0.59324   0.00000  Uiso   1.00
N92    N     0.72949   0.42099   0.22170   0.00000  Uiso   1.00
C93    C     0.50086   0.66870   0.00873   0.00000  Uiso   1.00
C94    C     0.49590   0.70888   0.96925   0.00000  Uiso   1.00
C95    C     0.36216   0.74025   0.96646   0.00000  Uiso   1.00
C96    C     0.38227   0.77452   0.92752   0.00000  Uiso   1.00
C97    C     0.35196   0.83647   0.87149   0.00000  Uiso   1.00
C98    C     0.57959   0.59646   0.95718   0.00000  Uiso   1.00
C99    C     0.51620   0.53330   0.94423   0.00000  Uiso   1.00
C100   C     0.60678   0.47294   0.89513   0.00000  Uiso   1.00
C101   C     0.70644   0.36034   0.82039   0.00000  Uiso   1.00
C102   C     0.61455   0.70424   0.05577   0.00000  Uiso   1.00
C103   C     0.58059   0.73168   0.12573   0.00000  Uiso   1.00
C104   C     0.70063   0.76204   0.15964   0.00000  Uiso   1.00
C105   C     0.85458   0.81679   0.23798   0.00000  Uiso   1.00
C106   C     0.77442   0.67380   0.94454   0.00000  Uiso   1.00
C107   C     0.64450   0.71165   0.93439   0.00000  Uiso   1.00
C108   C     0.66482   0.74589   0.89544   0.00000  Uiso   1.00
C109   C     0.53113   0.77730   0.89259   0.00000  Uiso   1.00
C110   C     0.72817   0.59923   0.92231   0.00000  Uiso   1.00
C111   C     0.81887   0.53894   0.87321   0.00000  Uiso   1.00
C112   C     0.75564   0.47571   0.86020   0.00000  Uiso   1.00
C113   C     0.76315   0.70701   0.02091   0.00000  Uiso   1.00
C114   C     0.88326   0.73733   0.05471   0.00000  Uiso   1.00
C115   C     0.84948   0.76482   0.12471   0.00000  Uiso   1.00
H116   H     0.38518   0.66654   0.03588   0.00000  Uiso   1.00
H117   H     0.24718   0.73809   0.99345   0.00000  Uiso   1.00
H118   H     0.40122   0.53117   0.97123   0.00000  Uiso   1.00
H119   H     0.46560   0.72953   0.15270   0.00000  Uiso   1.00
H120   H     0.15971   0.81861   0.93100   0.00000  Uiso   1.00
H121   H     0.48453   0.38232   0.88418   0.00000  Uiso   1.00
H122   H     0.62027   0.80059   0.26684   0.00000  Uiso   1.00
H123   H     0.89011   0.67595   0.91740   0.00000  Uiso   1.00
H124   H     0.77982   0.74802   0.86846   0.00000  Uiso   1.00
H125   H     0.93386   0.54111   0.84625   0.00000  Uiso   1.00
H126   H     0.99823   0.73946   0.02771   0.00000  Uiso   1.00
H127   H     0.59202   0.82667   0.82956   0.00000  Uiso   1.00
H128   H     0.91684   0.39038   0.78274   0.00000  Uiso   1.00
H129   H     0.05258   0.80865   0.16540   0.00000  Uiso   1.00
O130   O     0.29420   0.86986   0.85021   0.00000  Uiso   1.00
O131   O     0.72035   0.29747   0.78879   0.00000  Uiso   1.00
O132   O     0.89844   0.84623   0.29083   0.00000  Uiso   1.00
N133   N     0.27659   0.81063   0.91386   0.00000  Uiso   1.00
N134   N     0.58027   0.40273   0.87007   0.00000  Uiso   1.00
N135   N     0.70719   0.79376   0.22782   0.00000  Uiso   1.00
N136   N     0.50922   0.81497   0.85927   0.00000  Uiso   1.00
N137   N     0.81289   0.40707   0.81548   0.00000  Uiso   1.00
N138   N     0.93981   0.79809   0.17324   0.00000  Uiso   1.00
C139   C     0.49882   0.01459   0.33739   0.00000  Uiso   1.00
C140   C     0.54857   0.97665   0.26033   0.00000  Uiso   1.00
C141   C     0.69048   0.98091   0.22314   0.00000  Uiso   1.00
C142   C     0.71361   0.94218   0.15309   0.00000  Uiso   1.00
C143   C     0.80835   0.88955   0.03824   0.00000  Uiso   1.00
C144   C     0.45861   0.95804   0.35830   0.00000  Uiso   1.00
C145   C     0.52487   0.94667   0.40350   0.00000  Uiso   1.00
C146   C     0.47225   0.89228   0.41593   0.00000  Uiso   1.00
C147   C     0.42724   0.81079   0.45323   0.00000  Uiso   1.00
C148   C     0.34451   0.05674   0.35361   0.00000  Uiso   1.00
C149   C     0.31481   0.12835   0.39487   0.00000  Uiso   1.00
C150   C     0.16611   0.15706   0.40336   0.00000  Uiso   1.00
C151   C     0.94394   0.22881   0.43336   0.00000  Uiso   1.00
C152   C     0.28755   0.93822   0.27911   0.00000  Uiso   1.00
C153   C     0.43381   0.93517   0.22867   0.00000  Uiso   1.00
C154   C     0.45673   0.89642   0.15865   0.00000  Uiso   1.00
C155   C     0.59865   0.90063   0.12137   0.00000  Uiso   1.00
C156   C     0.34386   0.91656   0.32665   0.00000  Uiso   1.00
C157   C     0.29112   0.86218   0.33901   0.00000  Uiso   1.00
C158   C     0.35729   0.85072   0.38421   0.00000  Uiso   1.00
C159   C     0.22975   0.01526   0.32195   0.00000  Uiso   1.00
C160   C     0.08107   0.04386   0.33038   0.00000  Uiso   1.00
C161   C     0.05115   0.11550   0.37164   0.00000  Uiso   1.00
H162   H     0.58816   0.04688   0.36204   0.00000  Uiso   1.00
H163   H     0.77927   0.01302   0.24766   0.00000  Uiso   1.00
H164   H     0.61366   0.97878   0.42800   0.00000  Uiso   1.00
H165   H     0.40364   0.16043   0.41936   0.00000  Uiso   1.00
H166   H     0.94055   0.95716   0.10689   0.00000  Uiso   1.00
H167   H     0.59133   0.88499   0.48715   0.00000  Uiso   1.00
H168   H     0.14846   0.26804   0.46895   0.00000  Uiso   1.00
H169   H     0.19820   0.90592   0.25446   0.00000  Uiso   1.00
H170   H     0.36790   0.86432   0.13417   0.00000  Uiso   1.00
H171   H     0.20231   0.83009   0.31450   0.00000  Uiso   1.00
H172   H     0.99229   0.01174   0.30587   0.00000  Uiso   1.00
H173   H     0.60668   0.83647   0.01477   0.00000  Uiso   1.00
H174   H     0.25746   0.76431   0.39504   0.00000  Uiso   1.00
H175   H     0.81459   0.14735   0.37683   0.00000  Uiso   1.00
O176   O     0.89231   0.87197   0.98364   0.00000  Uiso   1.00
O177   O     0.43413   0.77730   0.48254   0.00000  Uiso   1.00
O178   O     0.85310   0.27985   0.45865   0.00000  Uiso   1.00
N179   N     0.83867   0.93447   0.10172   0.00000  Uiso   1.00
N180   N     0.51219   0.86700   0.45723   0.00000  Uiso   1.00
N181   N     0.09813   0.22511   0.44023   0.00000  Uiso   1.00
N182   N     0.65902   0.86953   0.05215   0.00000  Uiso   1.00
N183   N     0.33254   0.80206   0.40766   0.00000  Uiso   1.00
N184   N     0.91848   0.16017   0.39066   0.00000  Uiso   1.00
C185   C     0.82410   0.66258   0.67198   0.00000  Uiso   1.00
C186   C     0.80498   0.74223   0.70968   0.00000  Uiso   1.00
C187   C     0.91054   0.78566   0.74527   0.00000  Uiso   1.00
C188   C     0.87166   0.85713   0.77626   0.00000  Uiso   1.00
C189   C     0.86322   0.97671   0.83545   0.00000  Uiso   1.00
C190   C     0.81301   0.64132   0.59911   0.00000  Uiso   1.00
C191   C     0.92531   0.59990   0.54173   0.00000  Uiso   1.00
C192   C     0.89317   0.58641   0.47965   0.00000  Uiso   1.00
C193   C     0.89716   0.54928   0.36717   0.00000  Uiso   1.00
C194   C     0.67835   0.63825   0.70151   0.00000  Uiso   1.00
C195   C     0.67743   0.59422   0.73022   0.00000  Uiso   1.00
C196   C     0.53191   0.57813   0.75434   0.00000  Uiso   1.00
C197   C     0.32682   0.53622   0.80086   0.00000  Uiso   1.00
C198   C     0.56733   0.71228   0.66376   0.00000  Uiso   1.00
C199   C     0.66551   0.76922   0.70521   0.00000  Uiso   1.00
C200   C     0.62646   0.84065   0.73617   0.00000  Uiso   1.00
C201   C     0.73194   0.88418   0.77179   0.00000  Uiso   1.00
C202   C     0.67355   0.66831   0.59464   0.00000  Uiso   1.00
C203   C     0.64123   0.65488   0.53263   0.00000  Uiso   1.00
C204   C     0.75346   0.61346   0.47517   0.00000  Uiso   1.00
C205   C     0.53888   0.66524   0.69705   0.00000  Uiso   1.00
C206   C     0.39335   0.64921   0.72112   0.00000  Uiso   1.00
C207   C     0.39220   0.60517   0.74986   0.00000  Uiso   1.00
H208   H     0.93268   0.64156   0.67546   0.00000  Uiso   1.00
H209   H     0.01846   0.76475   0.74871   0.00000  Uiso   1.00
H210   H     0.03322   0.57901   0.54520   0.00000  Uiso   1.00
H211   H     0.78538   0.57334   0.73367   0.00000  Uiso   1.00
H212   H     0.05209   0.91324   0.82793   0.00000  Uiso   1.00
H213   H     0.08319   0.52157   0.39883   0.00000  Uiso   1.00
H214   H     0.56056   0.50961   0.79624   0.00000  Uiso   1.00
H215   H     0.45875   0.73329   0.66028   0.00000  Uiso   1.00
H216   H     0.51852   0.86152   0.73270   0.00000  Uiso   1.00
H217   H     0.53329   0.67578   0.52919   0.00000  Uiso   1.00
H218   H     0.28544   0.67011   0.71766   0.00000  Uiso   1.00
H219   H     0.64633   0.99178   0.81493   0.00000  Uiso   1.00
H220   H     0.67743   0.60011   0.38582   0.00000  Uiso   1.00
H221   H     0.15480   0.58815   0.78324   0.00000  Uiso   1.00
O222   O     0.89711   0.03520   0.86932   0.00000  Uiso   1.00
O223   O     0.93790   0.52134   0.30636   0.00000  Uiso   1.00
O224   O     0.25222   0.50566   0.82776   0.00000  Uiso   1.00
N225   N     0.94838   0.91412   0.81494   0.00000  Uiso   1.00
N226   N     0.97747   0.54795   0.41376   0.00000  Uiso   1.00
N227   N     0.48885   0.53675   0.78529   0.00000  Uiso   1.00
N228   N     0.73004   0.95639   0.80795   0.00000  Uiso   1.00
N229   N     0.75913   0.59021   0.40676   0.00000  Uiso   1.00
N230   N     0.27051   0.57901   0.77830   0.00000  Uiso   1.00
C231   C     0.49914   0.33130   0.99127   0.00000  Uiso   1.00
C232   C     0.50410   0.29112   0.03075   0.00000  Uiso   1.00
C233   C     0.63784   0.25975   0.03354   0.00000  Uiso   1.00
C234   C     0.61773   0.22548   0.07249   0.00000  Uiso   1.00
C235   C     0.64804   0.16353   0.12851   0.00000  Uiso   1.00
C236   C     0.42041   0.40354   0.04282   0.00000  Uiso   1.00
C237   C     0.48379   0.46670   0.05577   0.00000  Uiso   1.00
C238   C     0.39322   0.52706   0.10487   0.00000  Uiso   1.00
C239   C     0.29356   0.63966   0.17961   0.00000  Uiso   1.00
C240   C     0.38545   0.29576   0.94423   0.00000  Uiso   1.00
C241   C     0.41941   0.26832   0.87427   0.00000  Uiso   1.00
C242   C     0.29937   0.23796   0.84036   0.00000  Uiso   1.00
C243   C     0.14542   0.18321   0.76202   0.00000  Uiso   1.00
C244   C     0.22558   0.32620   0.05546   0.00000  Uiso   1.00
C245   C     0.35550   0.28835   0.06561   0.00000  Uiso   1.00
C246   C     0.33518   0.25411   0.10456   0.00000  Uiso   1.00
C247   C     0.46887   0.22270   0.10741   0.00000  Uiso   1.00
C248   C     0.27183   0.40077   0.07769   0.00000  Uiso   1.00
C249   C     0.18113   0.46106   0.12679   0.00000  Uiso   1.00
C250   C     0.24436   0.52429   0.13980   0.00000  Uiso   1.00
C251   C     0.23685   0.29299   0.97909   0.00000  Uiso   1.00
C252   C     0.11674   0.26267   0.94529   0.00000  Uiso   1.00
C253   C     0.15052   0.23518   0.87529   0.00000  Uiso   1.00
H254   H     0.61482   0.33346   0.96412   0.00000  Uiso   1.00
H255   H     0.75282   0.26191   0.00656   0.00000  Uiso   1.00
H256   H     0.59878   0.46883   0.02877   0.00000  Uiso   1.00
H257   H     0.53440   0.27047   0.84731   0.00000  Uiso   1.00
H258   H     0.84029   0.18139   0.06900   0.00000  Uiso   1.00
H259   H     0.51547   0.61768   0.11582   0.00000  Uiso   1.00
H260   H     0.37973   0.19941   0.73316   0.00000  Uiso   1.00
H261   H     0.10989   0.32405   0.08260   0.00000  Uiso   1.00
H262   H     0.22018   0.25198   0.13154   0.00000  Uiso   1.00
H263   H     0.06614   0.45889   0.15375   0.00000  Uiso   1.00
H264   H     0.00177   0.26054   0.97229   0.00000  Uiso   1.00
H265   H     0.40798   0.17333   0.17044   0.00000  Uiso   1.00
H266   H     0.08316   0.60962   0.21726   0.00000  Uiso   1.00
H267   H     0.94742   0.19135   0.83460   0.00000  Uiso   1.00
O268   O     0.70580   0.13014   0.14979   0.00000  Uiso   1.00
O269   O     0.27965   0.70253   0.21121   0.00000  Uiso   1.00
O270   O     0.10156   0.15377   0.70917   0.00000  Uiso   1.00
N271   N     0.72341   0.18937   0.08614   0.00000  Uiso   1.00
N272   N     0.41973   0.59727   0.12993   0.00000  Uiso   1.00
N273   N     0.29281   0.20624   0.77218   0.00000  Uiso   1.00
N274   N     0.49078   0.18503   0.14073   0.00000  Uiso   1.00
N275   N     0.18711   0.59293   0.18452   0.00000  Uiso   1.00
N276   N     0.06019   0.20191   0.82676   0.00000  Uiso   1.00
