data_job_00169
_audit_creation_date              2018-12-19
_audit_creation_method            'Materials Studio'
_symmetry_space_group_name_H-M    'P1'
_symmetry_Int_Tables_number       1
_symmetry_cell_setting            triclinic
loop_
_symmetry_equiv_pos_as_xyz
  x,y,z
_cell_length_a                    23.7717
_cell_length_b                    7.1057
_cell_length_c                    27.4378
_cell_angle_alpha                 90.0000
_cell_angle_beta                  96.4888
_cell_angle_gamma                 90.0000
loop_
_atom_site_label
_atom_site_type_symbol
_atom_site_fract_x
_atom_site_fract_y
_atom_site_fract_z
_atom_site_U_iso_or_equiv
_atom_site_adp_type
_atom_site_occupancy
C1     C     0.63392   0.60797   0.37461   0.00000  Uiso   1.00
C2     C     0.58016   0.50647   0.35333   0.00000  Uiso   1.00
C3     C     0.53367   0.58959   0.32658   0.00000  Uiso   1.00
C4     C     0.48865   0.47257   0.31033   0.00000  Uiso   1.00
C5     C     0.40494   0.34436   0.27577   0.00000  Uiso   1.00
C6     C     0.64074   0.56592   0.42946   0.00000  Uiso   1.00
C7     C     0.64519   0.69904   0.46671   0.00000  Uiso   1.00
C8     C     0.65117   0.63205   0.51456   0.00000  Uiso   1.00
C9     C     0.66155   0.59615   0.59818   0.00000  Uiso   1.00
C10    C     0.68272   0.50779   0.35388   0.00000  Uiso   1.00
C11    C     0.72248   0.59204   0.32759   0.00000  Uiso   1.00
C12    C     0.76382   0.47612   0.31181   0.00000  Uiso   1.00
C13    C     0.83938   0.34997   0.27808   0.00000  Uiso   1.00
C14    C     0.63664   0.25231   0.39334   0.00000  Uiso   1.00
C15    C     0.58164   0.31329   0.36351   0.00000  Uiso   1.00
C16    C     0.53668   0.19610   0.34730   0.00000  Uiso   1.00
C17    C     0.49013   0.27904   0.32052   0.00000  Uiso   1.00
C18    C     0.64222   0.37275   0.43964   0.00000  Uiso   1.00
C19    C     0.64820   0.30555   0.48744   0.00000  Uiso   1.00
C20    C     0.65265   0.43852   0.52475   0.00000  Uiso   1.00
C21    C     0.68420   0.31461   0.36405   0.00000  Uiso   1.00
C22    C     0.72549   0.19854   0.34831   0.00000  Uiso   1.00
C23    C     0.76530   0.28259   0.32200   0.00000  Uiso   1.00
H24    H     0.63277   0.75837   0.36670   0.00000  Uiso   1.00
H25    H     0.53254   0.73910   0.31872   0.00000  Uiso   1.00
H26    H     0.64404   0.84852   0.45883   0.00000  Uiso   1.00
H27    H     0.72132   0.74154   0.31973   0.00000  Uiso   1.00
H28    H     0.42206   0.63256   0.27002   0.00000  Uiso   1.00
H29    H     0.65719   0.86328   0.56546   0.00000  Uiso   1.00
H30    H     0.82015   0.63769   0.27214   0.00000  Uiso   1.00
H31    H     0.63779   0.10191   0.40127   0.00000  Uiso   1.00
H32    H     0.53784   0.04661   0.35518   0.00000  Uiso   1.00
H33    H     0.64934   0.15604   0.49530   0.00000  Uiso   1.00
H34    H     0.72662   0.04906   0.35619   0.00000  Uiso   1.00
H35    H     0.42636   0.07051   0.29962   0.00000  Uiso   1.00
H36    H     0.66150   0.30124   0.59506   0.00000  Uiso   1.00
H37    H     0.82445   0.07564   0.30173   0.00000  Uiso   1.00
O38    O     0.35836   0.32702   0.25390   0.00000  Uiso   1.00
O39    O     0.66686   0.62972   0.64150   0.00000  Uiso   1.00
O40    O     0.88065   0.33375   0.25666   0.00000  Uiso   1.00
N41    N     0.43680   0.50786   0.28330   0.00000  Uiso   1.00
N42    N     0.65662   0.72358   0.55952   0.00000  Uiso   1.00
N43    N     0.80898   0.51268   0.28530   0.00000  Uiso   1.00
N44    N     0.43911   0.20543   0.29923   0.00000  Uiso   1.00
N45    N     0.65894   0.42115   0.57545   0.00000  Uiso   1.00
N46    N     0.81130   0.21024   0.30122   0.00000  Uiso   1.00
C47    C     0.13392   0.10797   0.37461   0.00000  Uiso   1.00
C48    C     0.08016   0.00647   0.35333   0.00000  Uiso   1.00
C49    C     0.03367   0.08959   0.32658   0.00000  Uiso   1.00
C50    C     0.98865   0.97257   0.31033   0.00000  Uiso   1.00
C51    C     0.90494   0.84436   0.27577   0.00000  Uiso   1.00
C52    C     0.14074   0.06592   0.42946   0.00000  Uiso   1.00
C53    C     0.14519   0.19904   0.46671   0.00000  Uiso   1.00
C54    C     0.15117   0.13205   0.51456   0.00000  Uiso   1.00
C55    C     0.16155   0.09615   0.59818   0.00000  Uiso   1.00
C56    C     0.18272   0.00779   0.35388   0.00000  Uiso   1.00
C57    C     0.22248   0.09204   0.32759   0.00000  Uiso   1.00
C58    C     0.26382   0.97612   0.31181   0.00000  Uiso   1.00
C59    C     0.33938   0.84997   0.27808   0.00000  Uiso   1.00
C60    C     0.13664   0.75231   0.39334   0.00000  Uiso   1.00
C61    C     0.08164   0.81329   0.36351   0.00000  Uiso   1.00
C62    C     0.03668   0.69610   0.34730   0.00000  Uiso   1.00
C63    C     0.99013   0.77904   0.32052   0.00000  Uiso   1.00
C64    C     0.14222   0.87275   0.43964   0.00000  Uiso   1.00
C65    C     0.14820   0.80555   0.48744   0.00000  Uiso   1.00
C66    C     0.15265   0.93852   0.52475   0.00000  Uiso   1.00
C67    C     0.18420   0.81461   0.36405   0.00000  Uiso   1.00
C68    C     0.22549   0.69854   0.34831   0.00000  Uiso   1.00
C69    C     0.26530   0.78259   0.32200   0.00000  Uiso   1.00
H70    H     0.13277   0.25837   0.36670   0.00000  Uiso   1.00
H71    H     0.03254   0.23910   0.31872   0.00000  Uiso   1.00
H72    H     0.14404   0.34852   0.45883   0.00000  Uiso   1.00
H73    H     0.22132   0.24154   0.31973   0.00000  Uiso   1.00
H74    H     0.92206   0.13256   0.27002   0.00000  Uiso   1.00
H75    H     0.15719   0.36328   0.56546   0.00000  Uiso   1.00
H76    H     0.32015   0.13769   0.27214   0.00000  Uiso   1.00
H77    H     0.13779   0.60191   0.40127   0.00000  Uiso   1.00
H78    H     0.03784   0.54661   0.35518   0.00000  Uiso   1.00
H79    H     0.14934   0.65604   0.49530   0.00000  Uiso   1.00
H80    H     0.22662   0.54906   0.35619   0.00000  Uiso   1.00
H81    H     0.92636   0.57051   0.29962   0.00000  Uiso   1.00
H82    H     0.16150   0.80124   0.59506   0.00000  Uiso   1.00
H83    H     0.32445   0.57564   0.30173   0.00000  Uiso   1.00
O84    O     0.85836   0.82702   0.25390   0.00000  Uiso   1.00
O85    O     0.16686   0.12972   0.64150   0.00000  Uiso   1.00
O86    O     0.38065   0.83375   0.25666   0.00000  Uiso   1.00
N87    N     0.93680   0.00786   0.28330   0.00000  Uiso   1.00
N88    N     0.15662   0.22358   0.55952   0.00000  Uiso   1.00
N89    N     0.30898   0.01268   0.28530   0.00000  Uiso   1.00
N90    N     0.93911   0.70543   0.29923   0.00000  Uiso   1.00
N91    N     0.15894   0.92115   0.57545   0.00000  Uiso   1.00
N92    N     0.31130   0.71024   0.30122   0.00000  Uiso   1.00
C93    C     0.36608   0.60797   0.12539   0.00000  Uiso   1.00
C94    C     0.41984   0.50647   0.14667   0.00000  Uiso   1.00
C95    C     0.46633   0.58959   0.17342   0.00000  Uiso   1.00
C96    C     0.51135   0.47257   0.18967   0.00000  Uiso   1.00
C97    C     0.59506   0.34436   0.22423   0.00000  Uiso   1.00
C98    C     0.35926   0.56592   0.07054   0.00000  Uiso   1.00
C99    C     0.35481   0.69904   0.03329   0.00000  Uiso   1.00
C100   C     0.34883   0.63205   0.98544   0.00000  Uiso   1.00
C101   C     0.33845   0.59615   0.90182   0.00000  Uiso   1.00
C102   C     0.31728   0.50779   0.14612   0.00000  Uiso   1.00
C103   C     0.27752   0.59204   0.17241   0.00000  Uiso   1.00
C104   C     0.23618   0.47612   0.18819   0.00000  Uiso   1.00
C105   C     0.16062   0.34997   0.22192   0.00000  Uiso   1.00
C106   C     0.36336   0.25231   0.10666   0.00000  Uiso   1.00
C107   C     0.41836   0.31329   0.13649   0.00000  Uiso   1.00
C108   C     0.46332   0.19610   0.15270   0.00000  Uiso   1.00
C109   C     0.50987   0.27904   0.17948   0.00000  Uiso   1.00
C110   C     0.35778   0.37275   0.06036   0.00000  Uiso   1.00
C111   C     0.35180   0.30555   0.01256   0.00000  Uiso   1.00
C112   C     0.34735   0.43852   0.97525   0.00000  Uiso   1.00
C113   C     0.31580   0.31461   0.13595   0.00000  Uiso   1.00
C114   C     0.27451   0.19854   0.15169   0.00000  Uiso   1.00
C115   C     0.23470   0.28259   0.17800   0.00000  Uiso   1.00
H116   H     0.36723   0.75837   0.13330   0.00000  Uiso   1.00
H117   H     0.46746   0.73910   0.18128   0.00000  Uiso   1.00
H118   H     0.35596   0.84852   0.04117   0.00000  Uiso   1.00
H119   H     0.27868   0.74154   0.18027   0.00000  Uiso   1.00
H120   H     0.57794   0.63256   0.22998   0.00000  Uiso   1.00
H121   H     0.34281   0.86328   0.93454   0.00000  Uiso   1.00
H122   H     0.17985   0.63769   0.22786   0.00000  Uiso   1.00
H123   H     0.36221   0.10191   0.09873   0.00000  Uiso   1.00
H124   H     0.46216   0.04661   0.14482   0.00000  Uiso   1.00
H125   H     0.35066   0.15604   0.00470   0.00000  Uiso   1.00
H126   H     0.27338   0.04906   0.14381   0.00000  Uiso   1.00
H127   H     0.57364   0.07051   0.20038   0.00000  Uiso   1.00
H128   H     0.33850   0.30124   0.90494   0.00000  Uiso   1.00
H129   H     0.17555   0.07564   0.19827   0.00000  Uiso   1.00
O130   O     0.64164   0.32702   0.24610   0.00000  Uiso   1.00
O131   O     0.33314   0.62972   0.85850   0.00000  Uiso   1.00
O132   O     0.11935   0.33375   0.24334   0.00000  Uiso   1.00
N133   N     0.56320   0.50786   0.21670   0.00000  Uiso   1.00
N134   N     0.34338   0.72358   0.94048   0.00000  Uiso   1.00
N135   N     0.19102   0.51268   0.21470   0.00000  Uiso   1.00
N136   N     0.56089   0.20543   0.20077   0.00000  Uiso   1.00
N137   N     0.34106   0.42115   0.92455   0.00000  Uiso   1.00
N138   N     0.18870   0.21024   0.19878   0.00000  Uiso   1.00
C139   C     0.86608   0.10797   0.12539   0.00000  Uiso   1.00
C140   C     0.91984   0.00647   0.14667   0.00000  Uiso   1.00
C141   C     0.96633   0.08959   0.17342   0.00000  Uiso   1.00
C142   C     0.01135   0.97257   0.18967   0.00000  Uiso   1.00
C143   C     0.09506   0.84436   0.22423   0.00000  Uiso   1.00
C144   C     0.85926   0.06592   0.07054   0.00000  Uiso   1.00
C145   C     0.85481   0.19904   0.03329   0.00000  Uiso   1.00
C146   C     0.84883   0.13205   0.98544   0.00000  Uiso   1.00
C147   C     0.83845   0.09615   0.90182   0.00000  Uiso   1.00
C148   C     0.81728   0.00779   0.14612   0.00000  Uiso   1.00
C149   C     0.77752   0.09204   0.17241   0.00000  Uiso   1.00
C150   C     0.73618   0.97612   0.18819   0.00000  Uiso   1.00
C151   C     0.66062   0.84997   0.22192   0.00000  Uiso   1.00
C152   C     0.86336   0.75231   0.10666   0.00000  Uiso   1.00
C153   C     0.91836   0.81329   0.13649   0.00000  Uiso   1.00
C154   C     0.96332   0.69610   0.15270   0.00000  Uiso   1.00
C155   C     0.00987   0.77904   0.17948   0.00000  Uiso   1.00
C156   C     0.85778   0.87275   0.06036   0.00000  Uiso   1.00
C157   C     0.85180   0.80555   0.01256   0.00000  Uiso   1.00
C158   C     0.84735   0.93852   0.97525   0.00000  Uiso   1.00
C159   C     0.81580   0.81461   0.13595   0.00000  Uiso   1.00
C160   C     0.77451   0.69854   0.15169   0.00000  Uiso   1.00
C161   C     0.73470   0.78259   0.17800   0.00000  Uiso   1.00
H162   H     0.86723   0.25837   0.13330   0.00000  Uiso   1.00
H163   H     0.96746   0.23910   0.18128   0.00000  Uiso   1.00
H164   H     0.85596   0.34852   0.04117   0.00000  Uiso   1.00
H165   H     0.77868   0.24154   0.18027   0.00000  Uiso   1.00
H166   H     0.07794   0.13256   0.22998   0.00000  Uiso   1.00
H167   H     0.84281   0.36328   0.93454   0.00000  Uiso   1.00
H168   H     0.67985   0.13769   0.22786   0.00000  Uiso   1.00
H169   H     0.86221   0.60191   0.09873   0.00000  Uiso   1.00
H170   H     0.96216   0.54661   0.14482   0.00000  Uiso   1.00
H171   H     0.85066   0.65604   0.00470   0.00000  Uiso   1.00
H172   H     0.77338   0.54906   0.14381   0.00000  Uiso   1.00
H173   H     0.07364   0.57051   0.20038   0.00000  Uiso   1.00
H174   H     0.83850   0.80124   0.90494   0.00000  Uiso   1.00
H175   H     0.67555   0.57564   0.19827   0.00000  Uiso   1.00
O176   O     0.14164   0.82702   0.24610   0.00000  Uiso   1.00
O177   O     0.83314   0.12972   0.85850   0.00000  Uiso   1.00
O178   O     0.61935   0.83375   0.24334   0.00000  Uiso   1.00
N179   N     0.06320   0.00786   0.21670   0.00000  Uiso   1.00
N180   N     0.84338   0.22358   0.94048   0.00000  Uiso   1.00
N181   N     0.69102   0.01268   0.21470   0.00000  Uiso   1.00
N182   N     0.06089   0.70543   0.20077   0.00000  Uiso   1.00
N183   N     0.84106   0.92115   0.92455   0.00000  Uiso   1.00
N184   N     0.68870   0.71024   0.19878   0.00000  Uiso   1.00
C185   C     0.36608   0.39203   0.62539   0.00000  Uiso   1.00
C186   C     0.41984   0.49353   0.64667   0.00000  Uiso   1.00
C187   C     0.46633   0.41041   0.67342   0.00000  Uiso   1.00
C188   C     0.51135   0.52743   0.68967   0.00000  Uiso   1.00
C189   C     0.59506   0.65564   0.72423   0.00000  Uiso   1.00
C190   C     0.35926   0.43408   0.57054   0.00000  Uiso   1.00
C191   C     0.35481   0.30096   0.53329   0.00000  Uiso   1.00
C192   C     0.34883   0.36795   0.48544   0.00000  Uiso   1.00
C193   C     0.33845   0.40385   0.40182   0.00000  Uiso   1.00
C194   C     0.31728   0.49221   0.64612   0.00000  Uiso   1.00
C195   C     0.27752   0.40796   0.67241   0.00000  Uiso   1.00
C196   C     0.23618   0.52388   0.68819   0.00000  Uiso   1.00
C197   C     0.16062   0.65003   0.72192   0.00000  Uiso   1.00
C198   C     0.36336   0.74769   0.60666   0.00000  Uiso   1.00
C199   C     0.41836   0.68671   0.63649   0.00000  Uiso   1.00
C200   C     0.46332   0.80390   0.65270   0.00000  Uiso   1.00
C201   C     0.50987   0.72096   0.67948   0.00000  Uiso   1.00
C202   C     0.35778   0.62725   0.56036   0.00000  Uiso   1.00
C203   C     0.35180   0.69445   0.51256   0.00000  Uiso   1.00
C204   C     0.34735   0.56148   0.47525   0.00000  Uiso   1.00
C205   C     0.31580   0.68539   0.63595   0.00000  Uiso   1.00
C206   C     0.27451   0.80146   0.65169   0.00000  Uiso   1.00
C207   C     0.23470   0.71741   0.67800   0.00000  Uiso   1.00
H208   H     0.36723   0.24163   0.63330   0.00000  Uiso   1.00
H209   H     0.46746   0.26090   0.68128   0.00000  Uiso   1.00
H210   H     0.35596   0.15148   0.54117   0.00000  Uiso   1.00
H211   H     0.27868   0.25846   0.68027   0.00000  Uiso   1.00
H212   H     0.57794   0.36744   0.72998   0.00000  Uiso   1.00
H213   H     0.34281   0.13672   0.43454   0.00000  Uiso   1.00
H214   H     0.17985   0.36231   0.72786   0.00000  Uiso   1.00
H215   H     0.36221   0.89809   0.59873   0.00000  Uiso   1.00
H216   H     0.46216   0.95339   0.64482   0.00000  Uiso   1.00
H217   H     0.35066   0.84396   0.50470   0.00000  Uiso   1.00
H218   H     0.27338   0.95094   0.64381   0.00000  Uiso   1.00
H219   H     0.57364   0.92949   0.70038   0.00000  Uiso   1.00
H220   H     0.33850   0.69876   0.40494   0.00000  Uiso   1.00
H221   H     0.17555   0.92436   0.69827   0.00000  Uiso   1.00
O222   O     0.64164   0.67298   0.74610   0.00000  Uiso   1.00
O223   O     0.33314   0.37028   0.35850   0.00000  Uiso   1.00
O224   O     0.11935   0.66625   0.74334   0.00000  Uiso   1.00
N225   N     0.56320   0.49214   0.71670   0.00000  Uiso   1.00
N226   N     0.34338   0.27642   0.44048   0.00000  Uiso   1.00
N227   N     0.19102   0.48732   0.71470   0.00000  Uiso   1.00
N228   N     0.56089   0.79457   0.70077   0.00000  Uiso   1.00
N229   N     0.34106   0.57885   0.42455   0.00000  Uiso   1.00
N230   N     0.18870   0.78976   0.69878   0.00000  Uiso   1.00
C231   C     0.86608   0.89203   0.62539   0.00000  Uiso   1.00
C232   C     0.91984   0.99353   0.64667   0.00000  Uiso   1.00
C233   C     0.96633   0.91041   0.67342   0.00000  Uiso   1.00
C234   C     0.01135   0.02743   0.68967   0.00000  Uiso   1.00
C235   C     0.09506   0.15564   0.72423   0.00000  Uiso   1.00
C236   C     0.85926   0.93408   0.57054   0.00000  Uiso   1.00
C237   C     0.85481   0.80096   0.53329   0.00000  Uiso   1.00
C238   C     0.84883   0.86795   0.48544   0.00000  Uiso   1.00
C239   C     0.83845   0.90385   0.40182   0.00000  Uiso   1.00
C240   C     0.81728   0.99221   0.64612   0.00000  Uiso   1.00
C241   C     0.77752   0.90796   0.67241   0.00000  Uiso   1.00
C242   C     0.73618   0.02388   0.68819   0.00000  Uiso   1.00
C243   C     0.66062   0.15003   0.72192   0.00000  Uiso   1.00
C244   C     0.86336   0.24769   0.60666   0.00000  Uiso   1.00
C245   C     0.91836   0.18671   0.63649   0.00000  Uiso   1.00
C246   C     0.96332   0.30390   0.65270   0.00000  Uiso   1.00
C247   C     0.00987   0.22096   0.67948   0.00000  Uiso   1.00
C248   C     0.85778   0.12725   0.56036   0.00000  Uiso   1.00
C249   C     0.85180   0.19445   0.51256   0.00000  Uiso   1.00
C250   C     0.84735   0.06148   0.47525   0.00000  Uiso   1.00
C251   C     0.81580   0.18539   0.63595   0.00000  Uiso   1.00
C252   C     0.77451   0.30146   0.65169   0.00000  Uiso   1.00
C253   C     0.73470   0.21741   0.67800   0.00000  Uiso   1.00
H254   H     0.86723   0.74163   0.63330   0.00000  Uiso   1.00
H255   H     0.96746   0.76090   0.68128   0.00000  Uiso   1.00
H256   H     0.85596   0.65148   0.54117   0.00000  Uiso   1.00
H257   H     0.77868   0.75846   0.68027   0.00000  Uiso   1.00
H258   H     0.07794   0.86744   0.72998   0.00000  Uiso   1.00
H259   H     0.84281   0.63672   0.43454   0.00000  Uiso   1.00
H260   H     0.67985   0.86231   0.72786   0.00000  Uiso   1.00
H261   H     0.86221   0.39809   0.59873   0.00000  Uiso   1.00
H262   H     0.96216   0.45339   0.64482   0.00000  Uiso   1.00
H263   H     0.85066   0.34396   0.50470   0.00000  Uiso   1.00
H264   H     0.77338   0.45094   0.64381   0.00000  Uiso   1.00
H265   H     0.07364   0.42949   0.70038   0.00000  Uiso   1.00
H266   H     0.83850   0.19876   0.40494   0.00000  Uiso   1.00
H267   H     0.67555   0.42436   0.69827   0.00000  Uiso   1.00
O268   O     0.14164   0.17298   0.74610   0.00000  Uiso   1.00
O269   O     0.83314   0.87028   0.35850   0.00000  Uiso   1.00
O270   O     0.61935   0.16625   0.74334   0.00000  Uiso   1.00
N271   N     0.06320   0.99214   0.71670   0.00000  Uiso   1.00
N272   N     0.84338   0.77642   0.44048   0.00000  Uiso   1.00
N273   N     0.69102   0.98732   0.71470   0.00000  Uiso   1.00
N274   N     0.06089   0.29457   0.70077   0.00000  Uiso   1.00
N275   N     0.84106   0.07885   0.42455   0.00000  Uiso   1.00
N276   N     0.68870   0.28976   0.69878   0.00000  Uiso   1.00
C277   C     0.63392   0.39203   0.87461   0.00000  Uiso   1.00
C278   C     0.58016   0.49353   0.85333   0.00000  Uiso   1.00
C279   C     0.53367   0.41041   0.82658   0.00000  Uiso   1.00
C280   C     0.48865   0.52743   0.81033   0.00000  Uiso   1.00
C281   C     0.40494   0.65564   0.77577   0.00000  Uiso   1.00
C282   C     0.64074   0.43408   0.92946   0.00000  Uiso   1.00
C283   C     0.64519   0.30096   0.96671   0.00000  Uiso   1.00
C284   C     0.65117   0.36795   0.01456   0.00000  Uiso   1.00
C285   C     0.66155   0.40385   0.09818   0.00000  Uiso   1.00
C286   C     0.68272   0.49221   0.85388   0.00000  Uiso   1.00
C287   C     0.72248   0.40796   0.82759   0.00000  Uiso   1.00
C288   C     0.76382   0.52388   0.81181   0.00000  Uiso   1.00
C289   C     0.83938   0.65003   0.77808   0.00000  Uiso   1.00
C290   C     0.63664   0.74769   0.89334   0.00000  Uiso   1.00
C291   C     0.58164   0.68671   0.86351   0.00000  Uiso   1.00
C292   C     0.53668   0.80390   0.84730   0.00000  Uiso   1.00
C293   C     0.49013   0.72096   0.82052   0.00000  Uiso   1.00
C294   C     0.64222   0.62725   0.93964   0.00000  Uiso   1.00
C295   C     0.64820   0.69445   0.98744   0.00000  Uiso   1.00
C296   C     0.65265   0.56148   0.02475   0.00000  Uiso   1.00
C297   C     0.68420   0.68539   0.86405   0.00000  Uiso   1.00
C298   C     0.72549   0.80146   0.84831   0.00000  Uiso   1.00
C299   C     0.76530   0.71741   0.82200   0.00000  Uiso   1.00
H300   H     0.63277   0.24163   0.86670   0.00000  Uiso   1.00
H301   H     0.53254   0.26090   0.81872   0.00000  Uiso   1.00
H302   H     0.64404   0.15148   0.95883   0.00000  Uiso   1.00
H303   H     0.72132   0.25846   0.81973   0.00000  Uiso   1.00
H304   H     0.42206   0.36744   0.77002   0.00000  Uiso   1.00
H305   H     0.65719   0.13672   0.06546   0.00000  Uiso   1.00
H306   H     0.82015   0.36231   0.77214   0.00000  Uiso   1.00
H307   H     0.63779   0.89809   0.90127   0.00000  Uiso   1.00
H308   H     0.53784   0.95339   0.85518   0.00000  Uiso   1.00
H309   H     0.64934   0.84396   0.99530   0.00000  Uiso   1.00
H310   H     0.72662   0.95094   0.85619   0.00000  Uiso   1.00
H311   H     0.42636   0.92949   0.79962   0.00000  Uiso   1.00
H312   H     0.66150   0.69876   0.09506   0.00000  Uiso   1.00
H313   H     0.82445   0.92436   0.80173   0.00000  Uiso   1.00
O314   O     0.35836   0.67298   0.75390   0.00000  Uiso   1.00
O315   O     0.66686   0.37028   0.14150   0.00000  Uiso   1.00
O316   O     0.88065   0.66625   0.75666   0.00000  Uiso   1.00
N317   N     0.43680   0.49214   0.78330   0.00000  Uiso   1.00
N318   N     0.65662   0.27642   0.05952   0.00000  Uiso   1.00
N319   N     0.80898   0.48732   0.78530   0.00000  Uiso   1.00
N320   N     0.43911   0.79457   0.79923   0.00000  Uiso   1.00
N321   N     0.65894   0.57885   0.07545   0.00000  Uiso   1.00
N322   N     0.81130   0.78976   0.80122   0.00000  Uiso   1.00
C323   C     0.13392   0.89203   0.87461   0.00000  Uiso   1.00
C324   C     0.08016   0.99353   0.85333   0.00000  Uiso   1.00
C325   C     0.03367   0.91041   0.82658   0.00000  Uiso   1.00
C326   C     0.98865   0.02743   0.81033   0.00000  Uiso   1.00
C327   C     0.90494   0.15564   0.77577   0.00000  Uiso   1.00
C328   C     0.14074   0.93408   0.92946   0.00000  Uiso   1.00
C329   C     0.14519   0.80096   0.96671   0.00000  Uiso   1.00
C330   C     0.15117   0.86795   0.01456   0.00000  Uiso   1.00
C331   C     0.16155   0.90385   0.09818   0.00000  Uiso   1.00
C332   C     0.18272   0.99221   0.85388   0.00000  Uiso   1.00
C333   C     0.22248   0.90796   0.82759   0.00000  Uiso   1.00
C334   C     0.26382   0.02388   0.81181   0.00000  Uiso   1.00
C335   C     0.33938   0.15003   0.77808   0.00000  Uiso   1.00
C336   C     0.13664   0.24769   0.89334   0.00000  Uiso   1.00
C337   C     0.08164   0.18671   0.86351   0.00000  Uiso   1.00
C338   C     0.03668   0.30390   0.84730   0.00000  Uiso   1.00
C339   C     0.99013   0.22096   0.82052   0.00000  Uiso   1.00
C340   C     0.14222   0.12725   0.93964   0.00000  Uiso   1.00
C341   C     0.14820   0.19445   0.98744   0.00000  Uiso   1.00
C342   C     0.15265   0.06148   0.02475   0.00000  Uiso   1.00
C343   C     0.18420   0.18539   0.86405   0.00000  Uiso   1.00
C344   C     0.22549   0.30146   0.84831   0.00000  Uiso   1.00
C345   C     0.26530   0.21741   0.82200   0.00000  Uiso   1.00
H346   H     0.13277   0.74163   0.86670   0.00000  Uiso   1.00
H347   H     0.03254   0.76090   0.81872   0.00000  Uiso   1.00
H348   H     0.14404   0.65148   0.95883   0.00000  Uiso   1.00
H349   H     0.22132   0.75846   0.81973   0.00000  Uiso   1.00
H350   H     0.92206   0.86744   0.77002   0.00000  Uiso   1.00
H351   H     0.15719   0.63672   0.06546   0.00000  Uiso   1.00
H352   H     0.32015   0.86231   0.77214   0.00000  Uiso   1.00
H353   H     0.13779   0.39809   0.90127   0.00000  Uiso   1.00
H354   H     0.03784   0.45339   0.85518   0.00000  Uiso   1.00
H355   H     0.14934   0.34396   0.99530   0.00000  Uiso   1.00
H356   H     0.22662   0.45094   0.85619   0.00000  Uiso   1.00
H357   H     0.92636   0.42949   0.79962   0.00000  Uiso   1.00
H358   H     0.16150   0.19876   0.09506   0.00000  Uiso   1.00
H359   H     0.32445   0.42436   0.80173   0.00000  Uiso   1.00
O360   O     0.85836   0.17298   0.75390   0.00000  Uiso   1.00
O361   O     0.16686   0.87028   0.14150   0.00000  Uiso   1.00
O362   O     0.38065   0.16625   0.75666   0.00000  Uiso   1.00
N363   N     0.93680   0.99214   0.78330   0.00000  Uiso   1.00
N364   N     0.15662   0.77642   0.05952   0.00000  Uiso   1.00
N365   N     0.30898   0.98732   0.78530   0.00000  Uiso   1.00
N366   N     0.93911   0.29457   0.79923   0.00000  Uiso   1.00
N367   N     0.15894   0.07885   0.07545   0.00000  Uiso   1.00
N368   N     0.31130   0.28976   0.80122   0.00000  Uiso   1.00
