data_job_06174
_audit_creation_date              2018-12-19
_audit_creation_method            'Materials Studio'
_symmetry_space_group_name_H-M    'P1'
_symmetry_Int_Tables_number       1
_symmetry_cell_setting            triclinic
loop_
_symmetry_equiv_pos_as_xyz
  x,y,z
_cell_length_a                    16.1538
_cell_length_b                    15.3287
_cell_length_c                    15.0821
_cell_angle_alpha                 99.4740
_cell_angle_beta                  98.3301
_cell_angle_gamma                 98.7975
loop_
_atom_site_label
_atom_site_type_symbol
_atom_site_fract_x
_atom_site_fract_y
_atom_site_fract_z
_atom_site_U_iso_or_equiv
_atom_site_adp_type
_atom_site_occupancy
C1     C     0.77332   0.46096   0.36109   0.00000  Uiso   1.00
C2     C     0.83882   0.39919   0.36443   0.00000  Uiso   1.00
C3     C     0.87666   0.37331   0.44219   0.00000  Uiso   1.00
C4     C     0.93505   0.31644   0.43095   0.00000  Uiso   1.00
C5     C     0.03378   0.22511   0.44922   0.00000  Uiso   1.00
C6     C     0.81012   0.53796   0.31777   0.00000  Uiso   1.00
C7     C     0.82381   0.62877   0.35629   0.00000  Uiso   1.00
C8     C     0.85802   0.68871   0.30577   0.00000  Uiso   1.00
C9     C     0.91213   0.81283   0.25156   0.00000  Uiso   1.00
C10    C     0.69597   0.40805   0.29265   0.00000  Uiso   1.00
C11    C     0.61368   0.38963   0.31003   0.00000  Uiso   1.00
C12    C     0.55179   0.34022   0.23834   0.00000  Uiso   1.00
C13    C     0.42868   0.26262   0.14513   0.00000  Uiso   1.00
C14    C     0.80973   0.40597   0.20286   0.00000  Uiso   1.00
C15    C     0.85860   0.36932   0.27849   0.00000  Uiso   1.00
C16    C     0.91694   0.31247   0.26713   0.00000  Uiso   1.00
C17    C     0.95486   0.28651   0.34486   0.00000  Uiso   1.00
C18    C     0.82989   0.50810   0.23183   0.00000  Uiso   1.00
C19    C     0.86409   0.56793   0.18123   0.00000  Uiso   1.00
C20    C     0.87783   0.65879   0.21967   0.00000  Uiso   1.00
C21    C     0.71575   0.37818   0.20670   0.00000  Uiso   1.00
C22    C     0.65397   0.32879   0.13497   0.00000  Uiso   1.00
C23    C     0.57160   0.31030   0.15224   0.00000  Uiso   1.00
H24    H     0.75792   0.48422   0.42800   0.00000  Uiso   1.00
H25    H     0.86134   0.39645   0.50869   0.00000  Uiso   1.00
H26    H     0.80849   0.65186   0.42280   0.00000  Uiso   1.00
H27    H     0.59840   0.41276   0.37655   0.00000  Uiso   1.00
H28    H     0.98475   0.28599   0.56025   0.00000  Uiso   1.00
H29    H     0.87328   0.82454   0.37913   0.00000  Uiso   1.00
H30    H     0.43026   0.32036   0.28160   0.00000  Uiso   1.00
H31    H     0.82512   0.38272   0.13595   0.00000  Uiso   1.00
H32    H     0.93223   0.28937   0.20061   0.00000  Uiso   1.00
H33    H     0.87938   0.54479   0.11472   0.00000  Uiso   1.00
H34    H     0.66930   0.30569   0.06847   0.00000  Uiso   1.00
H35    H     0.04229   0.19909   0.31021   0.00000  Uiso   1.00
H36    H     0.93081   0.73764   0.12908   0.00000  Uiso   1.00
H37    H     0.48781   0.23345   0.03155   0.00000  Uiso   1.00
O38    O     0.08279   0.18299   0.48304   0.00000  Uiso   1.00
O39    O     0.93652   0.88955   0.24541   0.00000  Uiso   1.00
O40    O     0.35531   0.22806   0.11745   0.00000  Uiso   1.00
N41    N     0.98358   0.27833   0.49253   0.00000  Uiso   1.00
N42    N     0.87937   0.78185   0.32320   0.00000  Uiso   1.00
N43    N     0.46519   0.31050   0.23200   0.00000  Uiso   1.00
N44    N     0.01454   0.23157   0.35798   0.00000  Uiso   1.00
N45    N     0.91033   0.73508   0.18865   0.00000  Uiso   1.00
N46    N     0.49615   0.26373   0.09746   0.00000  Uiso   1.00
C47    C     0.35866   0.77312   0.45998   0.00000  Uiso   1.00
C48    C     0.36329   0.84249   0.39823   0.00000  Uiso   1.00
C49    C     0.43630   0.88118   0.37060   0.00000  Uiso   1.00
C50    C     0.42725   0.94327   0.31408   0.00000  Uiso   1.00
C51    C     0.44651   0.04760   0.22247   0.00000  Uiso   1.00
C52    C     0.31955   0.81296   0.54001   0.00000  Uiso   1.00
C53    C     0.35577   0.82680   0.63158   0.00000  Uiso   1.00
C54    C     0.30989   0.86403   0.69441   0.00000  Uiso   1.00
C55    C     0.26120   0.92244   0.82293   0.00000  Uiso   1.00
C56    C     0.29316   0.69234   0.40658   0.00000  Uiso   1.00
C57    C     0.30717   0.60477   0.38599   0.00000  Uiso   1.00
C58    C     0.23906   0.54044   0.33650   0.00000  Uiso   1.00
C59    C     0.14941   0.41158   0.25785   0.00000  Uiso   1.00
C60    C     0.21277   0.81460   0.40874   0.00000  Uiso   1.00
C61    C     0.28405   0.86502   0.37040   0.00000  Uiso   1.00
C62    C     0.27489   0.92707   0.31391   0.00000  Uiso   1.00
C63    C     0.34786   0.96584   0.28619   0.00000  Uiso   1.00
C64    C     0.24031   0.83549   0.51218   0.00000  Uiso   1.00
C65    C     0.19436   0.87270   0.57489   0.00000  Uiso   1.00
C66    C     0.23050   0.88660   0.66653   0.00000  Uiso   1.00
C67    C     0.21392   0.71487   0.37875   0.00000  Uiso   1.00
C68    C     0.14577   0.65067   0.32929   0.00000  Uiso   1.00
C69    C     0.15968   0.56301   0.30862   0.00000  Uiso   1.00
H70    H     0.42035   0.75558   0.48165   0.00000  Uiso   1.00
H71    H     0.49761   0.86373   0.39216   0.00000  Uiso   1.00
H72    H     0.41708   0.80935   0.65310   0.00000  Uiso   1.00
H73    H     0.36850   0.58736   0.40754   0.00000  Uiso   1.00
H74    H     0.54833   0.99359   0.28069   0.00000  Uiso   1.00
H75    H     0.37853   0.87891   0.83090   0.00000  Uiso   1.00
H76    H     0.27608   0.41078   0.31309   0.00000  Uiso   1.00
H77    H     0.15108   0.83214   0.38708   0.00000  Uiso   1.00
H78    H     0.21356   0.94450   0.29238   0.00000  Uiso   1.00
H79    H     0.13304   0.89012   0.55333   0.00000  Uiso   1.00
H80    H     0.08446   0.66813   0.30777   0.00000  Uiso   1.00
H81    H     0.31778   0.05915   0.19972   0.00000  Uiso   1.00
H82    H     0.14798   0.94446   0.74993   0.00000  Uiso   1.00
H83    H     0.04554   0.47634   0.23212   0.00000  Uiso   1.00
O84    O     0.47902   0.09892   0.17965   0.00000  Uiso   1.00
O85    O     0.25625   0.94844   0.90150   0.00000  Uiso   1.00
O86    O     0.12184   0.33428   0.22214   0.00000  Uiso   1.00
N87    N     0.48549   0.99359   0.27461   0.00000  Uiso   1.00
N88    N     0.32674   0.88638   0.78903   0.00000  Uiso   1.00
N89    N     0.23096   0.44872   0.30494   0.00000  Uiso   1.00
N90    N     0.36144   0.02887   0.23104   0.00000  Uiso   1.00
N91    N     0.20269   0.92165   0.74546   0.00000  Uiso   1.00
N92    N     0.10691   0.48399   0.26137   0.00000  Uiso   1.00
C93    C     0.46195   0.36098   0.77422   0.00000  Uiso   1.00
C94    C     0.40494   0.36705   0.84640   0.00000  Uiso   1.00
C95    C     0.38122   0.44497   0.88770   0.00000  Uiso   1.00
C96    C     0.32869   0.43644   0.95212   0.00000  Uiso   1.00
C97    C     0.24443   0.45857   0.06085   0.00000  Uiso   1.00
C98    C     0.53524   0.31806   0.81200   0.00000  Uiso   1.00
C99    C     0.62108   0.35479   0.82436   0.00000  Uiso   1.00
C100   C     0.67824   0.30501   0.85981   0.00000  Uiso   1.00
C101   C     0.79628   0.25105   0.91507   0.00000  Uiso   1.00
C102   C     0.41066   0.29248   0.69232   0.00000  Uiso   1.00
C103   C     0.39176   0.30768   0.60405   0.00000  Uiso   1.00
C104   C     0.34405   0.23635   0.53872   0.00000  Uiso   1.00
C105   C     0.26865   0.14268   0.40816   0.00000  Uiso   1.00
C106   C     0.41085   0.20725   0.81516   0.00000  Uiso   1.00
C107   C     0.37718   0.28355   0.86864   0.00000  Uiso   1.00
C108   C     0.32468   0.27489   0.93301   0.00000  Uiso   1.00
C109   C     0.30088   0.35279   0.97440   0.00000  Uiso   1.00
C110   C     0.50749   0.23456   0.83424   0.00000  Uiso   1.00
C111   C     0.56454   0.18471   0.86966   0.00000  Uiso   1.00
C112   C     0.65044   0.22135   0.88209   0.00000  Uiso   1.00
C113   C     0.38290   0.20897   0.71455   0.00000  Uiso   1.00
C114   C     0.33522   0.13760   0.64935   0.00000  Uiso   1.00
C115   C     0.31625   0.15270   0.56100   0.00000  Uiso   1.00
H116   H     0.48356   0.42599   0.75690   0.00000  Uiso   1.00
H117   H     0.40272   0.50958   0.87048   0.00000  Uiso   1.00
H118   H     0.64254   0.41941   0.80714   0.00000  Uiso   1.00
H119   H     0.41325   0.37231   0.58686   0.00000  Uiso   1.00
H120   H     0.30087   0.56545   0.00624   0.00000  Uiso   1.00
H121   H     0.80654   0.37529   0.87265   0.00000  Uiso   1.00
H122   H     0.32305   0.27598   0.40815   0.00000  Uiso   1.00
H123   H     0.38924   0.14223   0.83247   0.00000  Uiso   1.00
H124   H     0.30321   0.21026   0.95020   0.00000  Uiso   1.00
H125   H     0.54304   0.12009   0.88686   0.00000  Uiso   1.00
H126   H     0.31375   0.07299   0.66658   0.00000  Uiso   1.00
H127   H     0.22011   0.32251   0.07095   0.00000  Uiso   1.00
H128   H     0.72579   0.13235   0.93735   0.00000  Uiso   1.00
H129   H     0.24229   0.03304   0.47285   0.00000  Uiso   1.00
O130   O     0.20562   0.49385   0.11470   0.00000  Uiso   1.00
O131   O     0.86905   0.24437   0.93942   0.00000  Uiso   1.00
O132   O     0.23472   0.11408   0.33000   0.00000  Uiso   1.00
N133   N     0.29365   0.49893   0.00530   0.00000  Uiso   1.00
N134   N     0.76643   0.32116   0.88041   0.00000  Uiso   1.00
N135   N     0.31443   0.22830   0.44614   0.00000  Uiso   1.00
N136   N     0.25020   0.36821   0.04011   0.00000  Uiso   1.00
N137   N     0.72298   0.19043   0.91523   0.00000  Uiso   1.00
N138   N     0.27097   0.09758   0.48095   0.00000  Uiso   1.00
C139   C     0.22668   0.53904   0.63891   0.00000  Uiso   1.00
C140   C     0.16118   0.60081   0.63557   0.00000  Uiso   1.00
C141   C     0.12334   0.62669   0.55781   0.00000  Uiso   1.00
C142   C     0.06495   0.68356   0.56905   0.00000  Uiso   1.00
C143   C     0.96622   0.77489   0.55078   0.00000  Uiso   1.00
C144   C     0.18988   0.46204   0.68223   0.00000  Uiso   1.00
C145   C     0.17619   0.37123   0.64371   0.00000  Uiso   1.00
C146   C     0.14198   0.31129   0.69423   0.00000  Uiso   1.00
C147   C     0.08787   0.18717   0.74844   0.00000  Uiso   1.00
C148   C     0.30403   0.59195   0.70735   0.00000  Uiso   1.00
C149   C     0.38632   0.61037   0.68997   0.00000  Uiso   1.00
C150   C     0.44821   0.65978   0.76166   0.00000  Uiso   1.00
C151   C     0.57132   0.73738   0.85487   0.00000  Uiso   1.00
C152   C     0.19027   0.59403   0.79714   0.00000  Uiso   1.00
C153   C     0.14140   0.63068   0.72151   0.00000  Uiso   1.00
C154   C     0.08306   0.68753   0.73287   0.00000  Uiso   1.00
C155   C     0.04514   0.71349   0.65514   0.00000  Uiso   1.00
C156   C     0.17011   0.49190   0.76817   0.00000  Uiso   1.00
C157   C     0.13591   0.43207   0.81877   0.00000  Uiso   1.00
C158   C     0.12217   0.34121   0.78033   0.00000  Uiso   1.00
C159   C     0.28425   0.62182   0.79330   0.00000  Uiso   1.00
C160   C     0.34603   0.67121   0.86503   0.00000  Uiso   1.00
C161   C     0.42840   0.68970   0.84776   0.00000  Uiso   1.00
H162   H     0.24208   0.51578   0.57200   0.00000  Uiso   1.00
H163   H     0.13866   0.60355   0.49131   0.00000  Uiso   1.00
H164   H     0.19151   0.34814   0.57720   0.00000  Uiso   1.00
H165   H     0.40160   0.58724   0.62345   0.00000  Uiso   1.00
H166   H     0.01525   0.71401   0.43975   0.00000  Uiso   1.00
H167   H     0.12673   0.17546   0.62087   0.00000  Uiso   1.00
H168   H     0.56974   0.67964   0.71840   0.00000  Uiso   1.00
H169   H     0.17488   0.61728   0.86405   0.00000  Uiso   1.00
H170   H     0.06777   0.71063   0.79939   0.00000  Uiso   1.00
H171   H     0.12062   0.45521   0.88528   0.00000  Uiso   1.00
H172   H     0.33070   0.69431   0.93153   0.00000  Uiso   1.00
H173   H     0.95771   0.80091   0.68979   0.00000  Uiso   1.00
H174   H     0.06919   0.26236   0.87092   0.00000  Uiso   1.00
H175   H     0.51219   0.76655   0.96845   0.00000  Uiso   1.00
O176   O     0.91721   0.81701   0.51696   0.00000  Uiso   1.00
O177   O     0.06348   0.11045   0.75459   0.00000  Uiso   1.00
O178   O     0.64469   0.77194   0.88255   0.00000  Uiso   1.00
N179   N     0.01642   0.72167   0.50747   0.00000  Uiso   1.00
N180   N     0.12063   0.21815   0.67680   0.00000  Uiso   1.00
N181   N     0.53481   0.68950   0.76800   0.00000  Uiso   1.00
N182   N     0.98546   0.76843   0.64202   0.00000  Uiso   1.00
N183   N     0.08967   0.26492   0.81135   0.00000  Uiso   1.00
N184   N     0.50385   0.73627   0.90254   0.00000  Uiso   1.00
C185   C     0.64134   0.22688   0.54002   0.00000  Uiso   1.00
C186   C     0.63671   0.15751   0.60177   0.00000  Uiso   1.00
C187   C     0.56371   0.11882   0.62940   0.00000  Uiso   1.00
C188   C     0.57275   0.05673   0.68592   0.00000  Uiso   1.00
C189   C     0.55349   0.95240   0.77753   0.00000  Uiso   1.00
C190   C     0.68045   0.18704   0.45999   0.00000  Uiso   1.00
C191   C     0.64423   0.17320   0.36842   0.00000  Uiso   1.00
C192   C     0.69011   0.13597   0.30559   0.00000  Uiso   1.00
C193   C     0.73880   0.07756   0.17707   0.00000  Uiso   1.00
C194   C     0.70684   0.30766   0.59342   0.00000  Uiso   1.00
C195   C     0.69283   0.39524   0.61401   0.00000  Uiso   1.00
C196   C     0.76094   0.45956   0.66350   0.00000  Uiso   1.00
C197   C     0.85059   0.58842   0.74215   0.00000  Uiso   1.00
C198   C     0.78723   0.18540   0.59126   0.00000  Uiso   1.00
C199   C     0.71595   0.13498   0.62960   0.00000  Uiso   1.00
C200   C     0.72511   0.07293   0.68609   0.00000  Uiso   1.00
C201   C     0.65214   0.03416   0.71381   0.00000  Uiso   1.00
C202   C     0.75969   0.16451   0.48782   0.00000  Uiso   1.00
C203   C     0.80564   0.12730   0.42511   0.00000  Uiso   1.00
C204   C     0.76950   0.11340   0.33347   0.00000  Uiso   1.00
C205   C     0.78608   0.28513   0.62125   0.00000  Uiso   1.00
C206   C     0.85423   0.34933   0.67071   0.00000  Uiso   1.00
C207   C     0.84032   0.43699   0.69138   0.00000  Uiso   1.00
H208   H     0.57965   0.24442   0.51835   0.00000  Uiso   1.00
H209   H     0.50239   0.13627   0.60784   0.00000  Uiso   1.00
H210   H     0.58292   0.19065   0.34690   0.00000  Uiso   1.00
H211   H     0.63150   0.41264   0.59247   0.00000  Uiso   1.00
H212   H     0.45167   0.00641   0.71931   0.00000  Uiso   1.00
H213   H     0.62147   0.12109   0.16910   0.00000  Uiso   1.00
H214   H     0.72392   0.58922   0.68691   0.00000  Uiso   1.00
H215   H     0.84892   0.16786   0.61293   0.00000  Uiso   1.00
H216   H     0.78644   0.05550   0.70762   0.00000  Uiso   1.00
H217   H     0.86696   0.10988   0.44667   0.00000  Uiso   1.00
H218   H     0.91554   0.33187   0.69223   0.00000  Uiso   1.00
H219   H     0.68222   0.94085   0.80028   0.00000  Uiso   1.00
H220   H     0.85202   0.05554   0.25007   0.00000  Uiso   1.00
H221   H     0.95446   0.52366   0.76788   0.00000  Uiso   1.00
O222   O     0.52098   0.90108   0.82035   0.00000  Uiso   1.00
O223   O     0.74375   0.05156   0.09850   0.00000  Uiso   1.00
O224   O     0.87816   0.66572   0.77786   0.00000  Uiso   1.00
N225   N     0.51451   0.00641   0.72539   0.00000  Uiso   1.00
N226   N     0.67326   0.11362   0.21097   0.00000  Uiso   1.00
N227   N     0.76904   0.55128   0.69506   0.00000  Uiso   1.00
N228   N     0.63856   0.97113   0.76896   0.00000  Uiso   1.00
N229   N     0.79731   0.07835   0.25454   0.00000  Uiso   1.00
N230   N     0.89309   0.51601   0.73863   0.00000  Uiso   1.00
C231   C     0.53805   0.63902   0.22578   0.00000  Uiso   1.00
C232   C     0.59506   0.63295   0.15360   0.00000  Uiso   1.00
C233   C     0.61878   0.55503   0.11230   0.00000  Uiso   1.00
C234   C     0.67131   0.56356   0.04788   0.00000  Uiso   1.00
C235   C     0.75557   0.54143   0.93915   0.00000  Uiso   1.00
C236   C     0.46476   0.68194   0.18800   0.00000  Uiso   1.00
C237   C     0.37892   0.64521   0.17564   0.00000  Uiso   1.00
C238   C     0.32176   0.69499   0.14019   0.00000  Uiso   1.00
C239   C     0.20372   0.74895   0.08493   0.00000  Uiso   1.00
C240   C     0.58934   0.70752   0.30768   0.00000  Uiso   1.00
C241   C     0.60824   0.69232   0.39595   0.00000  Uiso   1.00
C242   C     0.65595   0.76365   0.46128   0.00000  Uiso   1.00
C243   C     0.73135   0.85732   0.59184   0.00000  Uiso   1.00
C244   C     0.58915   0.79275   0.18484   0.00000  Uiso   1.00
C245   C     0.62282   0.71645   0.13136   0.00000  Uiso   1.00
C246   C     0.67532   0.72511   0.06699   0.00000  Uiso   1.00
C247   C     0.69912   0.64721   0.02560   0.00000  Uiso   1.00
C248   C     0.49251   0.76544   0.16576   0.00000  Uiso   1.00
C249   C     0.43546   0.81529   0.13034   0.00000  Uiso   1.00
C250   C     0.34956   0.77865   0.11791   0.00000  Uiso   1.00
C251   C     0.61710   0.79103   0.28545   0.00000  Uiso   1.00
C252   C     0.66478   0.86240   0.35065   0.00000  Uiso   1.00
C253   C     0.68375   0.84730   0.43900   0.00000  Uiso   1.00
H254   H     0.51644   0.57401   0.24310   0.00000  Uiso   1.00
H255   H     0.59728   0.49042   0.12952   0.00000  Uiso   1.00
H256   H     0.35746   0.58059   0.19286   0.00000  Uiso   1.00
H257   H     0.58675   0.62769   0.41314   0.00000  Uiso   1.00
H258   H     0.69913   0.43455   0.99376   0.00000  Uiso   1.00
H259   H     0.19346   0.62471   0.12735   0.00000  Uiso   1.00
H260   H     0.67695   0.72402   0.59185   0.00000  Uiso   1.00
H261   H     0.61076   0.85777   0.16753   0.00000  Uiso   1.00
H262   H     0.69679   0.78974   0.04980   0.00000  Uiso   1.00
H263   H     0.45696   0.87991   0.11314   0.00000  Uiso   1.00
H264   H     0.68625   0.92701   0.33342   0.00000  Uiso   1.00
H265   H     0.77989   0.67749   0.92905   0.00000  Uiso   1.00
H266   H     0.27421   0.86765   0.06265   0.00000  Uiso   1.00
H267   H     0.75771   0.96696   0.52715   0.00000  Uiso   1.00
O268   O     0.79438   0.50615   0.88530   0.00000  Uiso   1.00
O269   O     0.13095   0.75563   0.06058   0.00000  Uiso   1.00
O270   O     0.76528   0.88592   0.67000   0.00000  Uiso   1.00
N271   N     0.70635   0.50107   0.99470   0.00000  Uiso   1.00
N272   N     0.23357   0.67884   0.11959   0.00000  Uiso   1.00
N273   N     0.68557   0.77170   0.55386   0.00000  Uiso   1.00
N274   N     0.74980   0.63179   0.95989   0.00000  Uiso   1.00
N275   N     0.27703   0.80957   0.08477   0.00000  Uiso   1.00
N276   N     0.72903   0.90242   0.51905   0.00000  Uiso   1.00
