data_job_04315
_audit_creation_date              2018-12-19
_audit_creation_method            'Materials Studio'
_symmetry_space_group_name_H-M    'P1'
_symmetry_Int_Tables_number       1
_symmetry_cell_setting            triclinic
loop_
_symmetry_equiv_pos_as_xyz
  x,y,z
_cell_length_a                    7.2903
_cell_length_b                    23.6903
_cell_length_c                    27.8258
_cell_angle_alpha                 90.0000
_cell_angle_beta                  105.3060
_cell_angle_gamma                 90.0000
loop_
_atom_site_label
_atom_site_type_symbol
_atom_site_fract_x
_atom_site_fract_y
_atom_site_fract_z
_atom_site_U_iso_or_equiv
_atom_site_adp_type
_atom_site_occupancy
C1     C     0.16669   0.22242   0.40284   0.00000  Uiso   1.00
C2     C     0.22475   0.16893   0.38012   0.00000  Uiso   1.00
C3     C     0.10596   0.12397   0.36093   0.00000  Uiso   1.00
C4     C     0.18627   0.07894   0.34183   0.00000  Uiso   1.00
C5     C     0.24720   0.99588   0.30656   0.00000  Uiso   1.00
C6     C     0.29977   0.22682   0.45515   0.00000  Uiso   1.00
C7     C     0.24404   0.23053   0.49904   0.00000  Uiso   1.00
C8     C     0.38750   0.23423   0.54310   0.00000  Uiso   1.00
C9     C     0.56490   0.24107   0.62431   0.00000  Uiso   1.00
C10    C     0.21806   0.27149   0.37339   0.00000  Uiso   1.00
C11    C     0.09365   0.31278   0.34855   0.00000  Uiso   1.00
C12    C     0.16834   0.35410   0.32378   0.00000  Uiso   1.00
C13    C     0.21888   0.43031   0.27806   0.00000  Uiso   1.00
C14    C     0.52056   0.22241   0.40305   0.00000  Uiso   1.00
C15    C     0.41696   0.16893   0.38024   0.00000  Uiso   1.00
C16    C     0.49747   0.12395   0.36116   0.00000  Uiso   1.00
C17    C     0.37882   0.07893   0.34194   0.00000  Uiso   1.00
C18    C     0.49197   0.22681   0.45527   0.00000  Uiso   1.00
C19    C     0.63555   0.23051   0.49927   0.00000  Uiso   1.00
C20    C     0.58006   0.23422   0.54322   0.00000  Uiso   1.00
C21    C     0.41027   0.27149   0.37351   0.00000  Uiso   1.00
C22    C     0.48517   0.31276   0.34878   0.00000  Uiso   1.00
C23    C     0.36090   0.35409   0.32390   0.00000  Uiso   1.00
H24    H     0.01705   0.22242   0.40275   0.00000  Uiso   1.00
H25    H     0.95722   0.12399   0.36085   0.00000  Uiso   1.00
H26    H     0.09528   0.23053   0.49894   0.00000  Uiso   1.00
H27    H     0.94493   0.31277   0.34847   0.00000  Uiso   1.00
H28    H     0.97567   0.01484   0.31446   0.00000  Uiso   1.00
H29    H     0.26677   0.23952   0.60563   0.00000  Uiso   1.00
H30    H     0.94971   0.41293   0.28833   0.00000  Uiso   1.00
H31    H     0.67021   0.22240   0.40314   0.00000  Uiso   1.00
H32    H     0.64622   0.12396   0.36126   0.00000  Uiso   1.00
H33    H     0.78428   0.23051   0.49935   0.00000  Uiso   1.00
H34    H     0.63392   0.31274   0.34888   0.00000  Uiso   1.00
H35    H     0.53489   0.01482   0.31479   0.00000  Uiso   1.00
H36    H     0.82599   0.23950   0.60596   0.00000  Uiso   1.00
H37    H     0.50893   0.41291   0.28867   0.00000  Uiso   1.00
O38    O     0.22772   0.95006   0.28708   0.00000  Uiso   1.00
O39    O     0.60964   0.24485   0.66908   0.00000  Uiso   1.00
O40    O     0.19366   0.47235   0.25280   0.00000  Uiso   1.00
N41    N     0.11056   0.02835   0.32028   0.00000  Uiso   1.00
N42    N     0.38273   0.23840   0.59250   0.00000  Uiso   1.00
N43    N     0.08631   0.40053   0.29587   0.00000  Uiso   1.00
N44    N     0.41147   0.02834   0.32046   0.00000  Uiso   1.00
N45    N     0.68364   0.23839   0.59268   0.00000  Uiso   1.00
N46    N     0.38722   0.40052   0.29605   0.00000  Uiso   1.00
C47    C     0.39473   0.53237   0.63056   0.00000  Uiso   1.00
C48    C     0.49947   0.58520   0.65451   0.00000  Uiso   1.00
C49    C     0.41991   0.62963   0.67455   0.00000  Uiso   1.00
C50    C     0.53950   0.67412   0.69472   0.00000  Uiso   1.00
C51    C     0.67287   0.75618   0.73188   0.00000  Uiso   1.00
C52    C     0.42321   0.52941   0.57826   0.00000  Uiso   1.00
C53    C     0.27954   0.52691   0.53419   0.00000  Uiso   1.00
C54    C     0.33494   0.52443   0.49017   0.00000  Uiso   1.00
C55    C     0.34992   0.51982   0.40895   0.00000  Uiso   1.00
C56    C     0.50400   0.48249   0.65903   0.00000  Uiso   1.00
C57    C     0.42825   0.44054   0.68287   0.00000  Uiso   1.00
C58    C     0.55167   0.39854   0.70685   0.00000  Uiso   1.00
C59    C     0.69208   0.32108   0.75104   0.00000  Uiso   1.00
C60    C     0.74858   0.53237   0.63075   0.00000  Uiso   1.00
C61    C     0.69166   0.58520   0.65461   0.00000  Uiso   1.00
C62    C     0.81141   0.62964   0.67476   0.00000  Uiso   1.00
C63    C     0.73205   0.67412   0.69483   0.00000  Uiso   1.00
C64    C     0.61540   0.52941   0.57836   0.00000  Uiso   1.00
C65    C     0.67103   0.52692   0.53440   0.00000  Uiso   1.00
C66    C     0.52748   0.52443   0.49028   0.00000  Uiso   1.00
C67    C     0.69620   0.48249   0.65914   0.00000  Uiso   1.00
C68    C     0.81975   0.44054   0.68308   0.00000  Uiso   1.00
C69    C     0.74421   0.39854   0.70695   0.00000  Uiso   1.00
H70    H     0.24510   0.53236   0.63047   0.00000  Uiso   1.00
H71    H     0.27116   0.62962   0.67446   0.00000  Uiso   1.00
H72    H     0.13082   0.52691   0.53412   0.00000  Uiso   1.00
H73    H     0.27951   0.44055   0.68278   0.00000  Uiso   1.00
H74    H     0.38481   0.73745   0.72325   0.00000  Uiso   1.00
H75    H     0.08888   0.52087   0.42735   0.00000  Uiso   1.00
H76    H     0.40243   0.33876   0.74082   0.00000  Uiso   1.00
H77    H     0.89822   0.53237   0.63083   0.00000  Uiso   1.00
H78    H     0.96013   0.62962   0.67484   0.00000  Uiso   1.00
H79    H     0.81978   0.52692   0.53449   0.00000  Uiso   1.00
H80    H     0.96847   0.44056   0.68315   0.00000  Uiso   1.00
H81    H     0.94400   0.73746   0.72356   0.00000  Uiso   1.00
H82    H     0.64806   0.52087   0.42765   0.00000  Uiso   1.00
H83    H     0.96162   0.33877   0.74112   0.00000  Uiso   1.00
O84    O     0.69333   0.80144   0.75233   0.00000  Uiso   1.00
O85    O     0.30508   0.51728   0.36411   0.00000  Uiso   1.00
O86    O     0.71645   0.27836   0.77539   0.00000  Uiso   1.00
N87    N     0.50793   0.72410   0.71729   0.00000  Uiso   1.00
N88    N     0.23124   0.52162   0.44064   0.00000  Uiso   1.00
N89    N     0.52438   0.35135   0.73370   0.00000  Uiso   1.00
N90    N     0.80882   0.72410   0.71746   0.00000  Uiso   1.00
N91    N     0.53214   0.52162   0.44080   0.00000  Uiso   1.00
N92    N     0.82527   0.35136   0.73386   0.00000  Uiso   1.00
C93    C     0.66669   0.72242   0.40284   0.00000  Uiso   1.00
C94    C     0.72475   0.66893   0.38012   0.00000  Uiso   1.00
C95    C     0.60596   0.62397   0.36093   0.00000  Uiso   1.00
C96    C     0.68627   0.57894   0.34183   0.00000  Uiso   1.00
C97    C     0.74720   0.49588   0.30656   0.00000  Uiso   1.00
C98    C     0.79977   0.72682   0.45515   0.00000  Uiso   1.00
C99    C     0.74404   0.73053   0.49904   0.00000  Uiso   1.00
C100   C     0.88750   0.73423   0.54310   0.00000  Uiso   1.00
C101   C     0.06490   0.74107   0.62431   0.00000  Uiso   1.00
C102   C     0.71806   0.77149   0.37339   0.00000  Uiso   1.00
C103   C     0.59365   0.81278   0.34855   0.00000  Uiso   1.00
C104   C     0.66834   0.85410   0.32378   0.00000  Uiso   1.00
C105   C     0.71888   0.93031   0.27806   0.00000  Uiso   1.00
C106   C     0.02056   0.72241   0.40305   0.00000  Uiso   1.00
C107   C     0.91696   0.66893   0.38024   0.00000  Uiso   1.00
C108   C     0.99747   0.62395   0.36116   0.00000  Uiso   1.00
C109   C     0.87882   0.57893   0.34194   0.00000  Uiso   1.00
C110   C     0.99197   0.72681   0.45527   0.00000  Uiso   1.00
C111   C     0.13555   0.73051   0.49927   0.00000  Uiso   1.00
C112   C     0.08006   0.73422   0.54322   0.00000  Uiso   1.00
C113   C     0.91027   0.77149   0.37351   0.00000  Uiso   1.00
C114   C     0.98517   0.81276   0.34878   0.00000  Uiso   1.00
C115   C     0.86090   0.85409   0.32390   0.00000  Uiso   1.00
H116   H     0.51705   0.72242   0.40275   0.00000  Uiso   1.00
H117   H     0.45722   0.62399   0.36085   0.00000  Uiso   1.00
H118   H     0.59528   0.73053   0.49894   0.00000  Uiso   1.00
H119   H     0.44493   0.81277   0.34847   0.00000  Uiso   1.00
H120   H     0.47567   0.51484   0.31446   0.00000  Uiso   1.00
H121   H     0.76677   0.73952   0.60563   0.00000  Uiso   1.00
H122   H     0.44971   0.91293   0.28833   0.00000  Uiso   1.00
H123   H     0.17021   0.72240   0.40314   0.00000  Uiso   1.00
H124   H     0.14622   0.62396   0.36126   0.00000  Uiso   1.00
H125   H     0.28428   0.73051   0.49935   0.00000  Uiso   1.00
H126   H     0.13392   0.81274   0.34888   0.00000  Uiso   1.00
H127   H     0.03489   0.51482   0.31479   0.00000  Uiso   1.00
H128   H     0.32599   0.73950   0.60596   0.00000  Uiso   1.00
H129   H     0.00893   0.91291   0.28867   0.00000  Uiso   1.00
O130   O     0.72772   0.45006   0.28708   0.00000  Uiso   1.00
O131   O     0.10964   0.74485   0.66908   0.00000  Uiso   1.00
O132   O     0.69366   0.97235   0.25280   0.00000  Uiso   1.00
N133   N     0.61056   0.52835   0.32028   0.00000  Uiso   1.00
N134   N     0.88273   0.73840   0.59250   0.00000  Uiso   1.00
N135   N     0.58631   0.90053   0.29587   0.00000  Uiso   1.00
N136   N     0.91147   0.52834   0.32046   0.00000  Uiso   1.00
N137   N     0.18364   0.73839   0.59268   0.00000  Uiso   1.00
N138   N     0.88722   0.90052   0.29605   0.00000  Uiso   1.00
C139   C     0.89473   0.03237   0.63056   0.00000  Uiso   1.00
C140   C     0.99947   0.08520   0.65451   0.00000  Uiso   1.00
C141   C     0.91991   0.12963   0.67455   0.00000  Uiso   1.00
C142   C     0.03950   0.17412   0.69472   0.00000  Uiso   1.00
C143   C     0.17287   0.25618   0.73188   0.00000  Uiso   1.00
C144   C     0.92321   0.02941   0.57826   0.00000  Uiso   1.00
C145   C     0.77954   0.02691   0.53419   0.00000  Uiso   1.00
C146   C     0.83494   0.02443   0.49017   0.00000  Uiso   1.00
C147   C     0.84992   0.01982   0.40895   0.00000  Uiso   1.00
C148   C     0.00400   0.98249   0.65903   0.00000  Uiso   1.00
C149   C     0.92825   0.94054   0.68287   0.00000  Uiso   1.00
C150   C     0.05167   0.89854   0.70685   0.00000  Uiso   1.00
C151   C     0.19208   0.82108   0.75104   0.00000  Uiso   1.00
C152   C     0.24858   0.03237   0.63075   0.00000  Uiso   1.00
C153   C     0.19166   0.08520   0.65461   0.00000  Uiso   1.00
C154   C     0.31141   0.12964   0.67476   0.00000  Uiso   1.00
C155   C     0.23205   0.17412   0.69483   0.00000  Uiso   1.00
C156   C     0.11540   0.02941   0.57836   0.00000  Uiso   1.00
C157   C     0.17103   0.02692   0.53440   0.00000  Uiso   1.00
C158   C     0.02748   0.02443   0.49028   0.00000  Uiso   1.00
C159   C     0.19620   0.98249   0.65914   0.00000  Uiso   1.00
C160   C     0.31975   0.94054   0.68308   0.00000  Uiso   1.00
C161   C     0.24421   0.89854   0.70695   0.00000  Uiso   1.00
H162   H     0.74510   0.03236   0.63047   0.00000  Uiso   1.00
H163   H     0.77116   0.12962   0.67446   0.00000  Uiso   1.00
H164   H     0.63082   0.02691   0.53412   0.00000  Uiso   1.00
H165   H     0.77951   0.94055   0.68278   0.00000  Uiso   1.00
H166   H     0.88481   0.23745   0.72325   0.00000  Uiso   1.00
H167   H     0.58888   0.02087   0.42735   0.00000  Uiso   1.00
H168   H     0.90243   0.83876   0.74082   0.00000  Uiso   1.00
H169   H     0.39822   0.03237   0.63083   0.00000  Uiso   1.00
H170   H     0.46013   0.12962   0.67484   0.00000  Uiso   1.00
H171   H     0.31978   0.02692   0.53449   0.00000  Uiso   1.00
H172   H     0.46847   0.94056   0.68315   0.00000  Uiso   1.00
H173   H     0.44400   0.23746   0.72356   0.00000  Uiso   1.00
H174   H     0.14806   0.02087   0.42765   0.00000  Uiso   1.00
H175   H     0.46162   0.83877   0.74112   0.00000  Uiso   1.00
O176   O     0.19333   0.30144   0.75233   0.00000  Uiso   1.00
O177   O     0.80508   0.01728   0.36411   0.00000  Uiso   1.00
O178   O     0.21645   0.77836   0.77539   0.00000  Uiso   1.00
N179   N     0.00793   0.22410   0.71729   0.00000  Uiso   1.00
N180   N     0.73124   0.02162   0.44064   0.00000  Uiso   1.00
N181   N     0.02438   0.85135   0.73370   0.00000  Uiso   1.00
N182   N     0.30882   0.22410   0.71746   0.00000  Uiso   1.00
N183   N     0.03214   0.02162   0.44080   0.00000  Uiso   1.00
N184   N     0.32527   0.85136   0.73386   0.00000  Uiso   1.00
C185   C     0.16669   0.77758   0.90284   0.00000  Uiso   1.00
C186   C     0.22475   0.83107   0.88012   0.00000  Uiso   1.00
C187   C     0.10596   0.87603   0.86093   0.00000  Uiso   1.00
C188   C     0.18627   0.92106   0.84183   0.00000  Uiso   1.00
C189   C     0.24720   0.00412   0.80656   0.00000  Uiso   1.00
C190   C     0.29977   0.77318   0.95515   0.00000  Uiso   1.00
C191   C     0.24404   0.76947   0.99904   0.00000  Uiso   1.00
C192   C     0.38750   0.76577   0.04310   0.00000  Uiso   1.00
C193   C     0.56490   0.75893   0.12431   0.00000  Uiso   1.00
C194   C     0.21806   0.72851   0.87339   0.00000  Uiso   1.00
C195   C     0.09365   0.68722   0.84855   0.00000  Uiso   1.00
C196   C     0.16834   0.64590   0.82378   0.00000  Uiso   1.00
C197   C     0.21888   0.56969   0.77806   0.00000  Uiso   1.00
C198   C     0.52056   0.77759   0.90305   0.00000  Uiso   1.00
C199   C     0.41696   0.83107   0.88024   0.00000  Uiso   1.00
C200   C     0.49747   0.87605   0.86116   0.00000  Uiso   1.00
C201   C     0.37882   0.92107   0.84194   0.00000  Uiso   1.00
C202   C     0.49197   0.77319   0.95527   0.00000  Uiso   1.00
C203   C     0.63555   0.76949   0.99927   0.00000  Uiso   1.00
C204   C     0.58006   0.76578   0.04322   0.00000  Uiso   1.00
C205   C     0.41027   0.72851   0.87351   0.00000  Uiso   1.00
C206   C     0.48517   0.68724   0.84878   0.00000  Uiso   1.00
C207   C     0.36090   0.64591   0.82390   0.00000  Uiso   1.00
H208   H     0.01705   0.77758   0.90275   0.00000  Uiso   1.00
H209   H     0.95722   0.87601   0.86085   0.00000  Uiso   1.00
H210   H     0.09528   0.76947   0.99894   0.00000  Uiso   1.00
H211   H     0.94493   0.68723   0.84847   0.00000  Uiso   1.00
H212   H     0.97567   0.98516   0.81446   0.00000  Uiso   1.00
H213   H     0.26677   0.76048   0.10563   0.00000  Uiso   1.00
H214   H     0.94971   0.58707   0.78833   0.00000  Uiso   1.00
H215   H     0.67021   0.77760   0.90314   0.00000  Uiso   1.00
H216   H     0.64622   0.87604   0.86126   0.00000  Uiso   1.00
H217   H     0.78428   0.76949   0.99935   0.00000  Uiso   1.00
H218   H     0.63392   0.68726   0.84888   0.00000  Uiso   1.00
H219   H     0.53489   0.98518   0.81479   0.00000  Uiso   1.00
H220   H     0.82599   0.76050   0.10596   0.00000  Uiso   1.00
H221   H     0.50893   0.58709   0.78867   0.00000  Uiso   1.00
O222   O     0.22772   0.04994   0.78708   0.00000  Uiso   1.00
O223   O     0.60964   0.75515   0.16908   0.00000  Uiso   1.00
O224   O     0.19366   0.52765   0.75280   0.00000  Uiso   1.00
N225   N     0.11056   0.97165   0.82028   0.00000  Uiso   1.00
N226   N     0.38273   0.76160   0.09250   0.00000  Uiso   1.00
N227   N     0.08631   0.59947   0.79587   0.00000  Uiso   1.00
N228   N     0.41147   0.97166   0.82046   0.00000  Uiso   1.00
N229   N     0.68364   0.76161   0.09268   0.00000  Uiso   1.00
N230   N     0.38722   0.59948   0.79605   0.00000  Uiso   1.00
C231   C     0.39473   0.46763   0.13056   0.00000  Uiso   1.00
C232   C     0.49947   0.41480   0.15451   0.00000  Uiso   1.00
C233   C     0.41991   0.37037   0.17455   0.00000  Uiso   1.00
C234   C     0.53950   0.32588   0.19472   0.00000  Uiso   1.00
C235   C     0.67287   0.24382   0.23188   0.00000  Uiso   1.00
C236   C     0.42321   0.47059   0.07826   0.00000  Uiso   1.00
C237   C     0.27954   0.47309   0.03419   0.00000  Uiso   1.00
C238   C     0.33494   0.47557   0.99017   0.00000  Uiso   1.00
C239   C     0.34992   0.48018   0.90895   0.00000  Uiso   1.00
C240   C     0.50400   0.51751   0.15903   0.00000  Uiso   1.00
C241   C     0.42825   0.55946   0.18287   0.00000  Uiso   1.00
C242   C     0.55167   0.60146   0.20685   0.00000  Uiso   1.00
C243   C     0.69208   0.67892   0.25104   0.00000  Uiso   1.00
C244   C     0.74858   0.46763   0.13075   0.00000  Uiso   1.00
C245   C     0.69166   0.41480   0.15461   0.00000  Uiso   1.00
C246   C     0.81141   0.37036   0.17476   0.00000  Uiso   1.00
C247   C     0.73205   0.32588   0.19483   0.00000  Uiso   1.00
C248   C     0.61540   0.47059   0.07836   0.00000  Uiso   1.00
C249   C     0.67103   0.47308   0.03440   0.00000  Uiso   1.00
C250   C     0.52748   0.47557   0.99028   0.00000  Uiso   1.00
C251   C     0.69620   0.51751   0.15914   0.00000  Uiso   1.00
C252   C     0.81975   0.55946   0.18308   0.00000  Uiso   1.00
C253   C     0.74421   0.60146   0.20695   0.00000  Uiso   1.00
H254   H     0.24510   0.46764   0.13047   0.00000  Uiso   1.00
H255   H     0.27116   0.37038   0.17446   0.00000  Uiso   1.00
H256   H     0.13082   0.47309   0.03412   0.00000  Uiso   1.00
H257   H     0.27951   0.55945   0.18278   0.00000  Uiso   1.00
H258   H     0.38481   0.26255   0.22325   0.00000  Uiso   1.00
H259   H     0.08888   0.47913   0.92735   0.00000  Uiso   1.00
H260   H     0.40243   0.66124   0.24082   0.00000  Uiso   1.00
H261   H     0.89822   0.46763   0.13083   0.00000  Uiso   1.00
H262   H     0.96013   0.37038   0.17484   0.00000  Uiso   1.00
H263   H     0.81978   0.47308   0.03449   0.00000  Uiso   1.00
H264   H     0.96847   0.55944   0.18315   0.00000  Uiso   1.00
H265   H     0.94400   0.26254   0.22356   0.00000  Uiso   1.00
H266   H     0.64806   0.47913   0.92765   0.00000  Uiso   1.00
H267   H     0.96162   0.66123   0.24112   0.00000  Uiso   1.00
O268   O     0.69333   0.19856   0.25233   0.00000  Uiso   1.00
O269   O     0.30508   0.48272   0.86411   0.00000  Uiso   1.00
O270   O     0.71645   0.72164   0.27539   0.00000  Uiso   1.00
N271   N     0.50793   0.27590   0.21729   0.00000  Uiso   1.00
N272   N     0.23124   0.47838   0.94064   0.00000  Uiso   1.00
N273   N     0.52438   0.64865   0.23370   0.00000  Uiso   1.00
N274   N     0.80882   0.27590   0.21746   0.00000  Uiso   1.00
N275   N     0.53214   0.47838   0.94080   0.00000  Uiso   1.00
N276   N     0.82527   0.64864   0.23386   0.00000  Uiso   1.00
C277   C     0.66669   0.27758   0.90284   0.00000  Uiso   1.00
C278   C     0.72475   0.33107   0.88012   0.00000  Uiso   1.00
C279   C     0.60596   0.37603   0.86093   0.00000  Uiso   1.00
C280   C     0.68627   0.42106   0.84183   0.00000  Uiso   1.00
C281   C     0.74720   0.50412   0.80656   0.00000  Uiso   1.00
C282   C     0.79977   0.27318   0.95515   0.00000  Uiso   1.00
C283   C     0.74404   0.26947   0.99904   0.00000  Uiso   1.00
C284   C     0.88750   0.26577   0.04310   0.00000  Uiso   1.00
C285   C     0.06490   0.25893   0.12431   0.00000  Uiso   1.00
C286   C     0.71806   0.22851   0.87339   0.00000  Uiso   1.00
C287   C     0.59365   0.18722   0.84855   0.00000  Uiso   1.00
C288   C     0.66834   0.14590   0.82378   0.00000  Uiso   1.00
C289   C     0.71888   0.06969   0.77806   0.00000  Uiso   1.00
C290   C     0.02056   0.27759   0.90305   0.00000  Uiso   1.00
C291   C     0.91696   0.33107   0.88024   0.00000  Uiso   1.00
C292   C     0.99747   0.37605   0.86116   0.00000  Uiso   1.00
C293   C     0.87882   0.42107   0.84194   0.00000  Uiso   1.00
C294   C     0.99197   0.27319   0.95527   0.00000  Uiso   1.00
C295   C     0.13555   0.26949   0.99927   0.00000  Uiso   1.00
C296   C     0.08006   0.26578   0.04322   0.00000  Uiso   1.00
C297   C     0.91027   0.22851   0.87351   0.00000  Uiso   1.00
C298   C     0.98517   0.18724   0.84878   0.00000  Uiso   1.00
C299   C     0.86090   0.14591   0.82390   0.00000  Uiso   1.00
H300   H     0.51705   0.27758   0.90275   0.00000  Uiso   1.00
H301   H     0.45722   0.37601   0.86085   0.00000  Uiso   1.00
H302   H     0.59528   0.26947   0.99894   0.00000  Uiso   1.00
H303   H     0.44493   0.18723   0.84847   0.00000  Uiso   1.00
H304   H     0.47567   0.48516   0.81446   0.00000  Uiso   1.00
H305   H     0.76677   0.26048   0.10563   0.00000  Uiso   1.00
H306   H     0.44971   0.08707   0.78833   0.00000  Uiso   1.00
H307   H     0.17021   0.27760   0.90314   0.00000  Uiso   1.00
H308   H     0.14622   0.37604   0.86126   0.00000  Uiso   1.00
H309   H     0.28428   0.26949   0.99935   0.00000  Uiso   1.00
H310   H     0.13392   0.18726   0.84888   0.00000  Uiso   1.00
H311   H     0.03489   0.48518   0.81479   0.00000  Uiso   1.00
H312   H     0.32599   0.26050   0.10596   0.00000  Uiso   1.00
H313   H     0.00893   0.08709   0.78867   0.00000  Uiso   1.00
O314   O     0.72772   0.54994   0.78708   0.00000  Uiso   1.00
O315   O     0.10964   0.25515   0.16908   0.00000  Uiso   1.00
O316   O     0.69366   0.02765   0.75280   0.00000  Uiso   1.00
N317   N     0.61056   0.47165   0.82028   0.00000  Uiso   1.00
N318   N     0.88273   0.26160   0.09250   0.00000  Uiso   1.00
N319   N     0.58631   0.09947   0.79587   0.00000  Uiso   1.00
N320   N     0.91147   0.47166   0.82046   0.00000  Uiso   1.00
N321   N     0.18364   0.26161   0.09268   0.00000  Uiso   1.00
N322   N     0.88722   0.09948   0.79605   0.00000  Uiso   1.00
C323   C     0.89473   0.96763   0.13056   0.00000  Uiso   1.00
C324   C     0.99947   0.91480   0.15451   0.00000  Uiso   1.00
C325   C     0.91991   0.87037   0.17455   0.00000  Uiso   1.00
C326   C     0.03950   0.82588   0.19472   0.00000  Uiso   1.00
C327   C     0.17287   0.74382   0.23188   0.00000  Uiso   1.00
C328   C     0.92321   0.97059   0.07826   0.00000  Uiso   1.00
C329   C     0.77954   0.97309   0.03419   0.00000  Uiso   1.00
C330   C     0.83494   0.97557   0.99017   0.00000  Uiso   1.00
C331   C     0.84992   0.98018   0.90895   0.00000  Uiso   1.00
C332   C     0.00400   0.01751   0.15903   0.00000  Uiso   1.00
C333   C     0.92825   0.05946   0.18287   0.00000  Uiso   1.00
C334   C     0.05167   0.10146   0.20685   0.00000  Uiso   1.00
C335   C     0.19208   0.17892   0.25104   0.00000  Uiso   1.00
C336   C     0.24858   0.96763   0.13075   0.00000  Uiso   1.00
C337   C     0.19166   0.91480   0.15461   0.00000  Uiso   1.00
C338   C     0.31141   0.87036   0.17476   0.00000  Uiso   1.00
C339   C     0.23205   0.82588   0.19483   0.00000  Uiso   1.00
C340   C     0.11540   0.97059   0.07836   0.00000  Uiso   1.00
C341   C     0.17103   0.97308   0.03440   0.00000  Uiso   1.00
C342   C     0.02748   0.97557   0.99028   0.00000  Uiso   1.00
C343   C     0.19620   0.01751   0.15914   0.00000  Uiso   1.00
C344   C     0.31975   0.05946   0.18308   0.00000  Uiso   1.00
C345   C     0.24421   0.10146   0.20695   0.00000  Uiso   1.00
H346   H     0.74510   0.96764   0.13047   0.00000  Uiso   1.00
H347   H     0.77116   0.87038   0.17446   0.00000  Uiso   1.00
H348   H     0.63082   0.97309   0.03412   0.00000  Uiso   1.00
H349   H     0.77951   0.05945   0.18278   0.00000  Uiso   1.00
H350   H     0.88481   0.76255   0.22325   0.00000  Uiso   1.00
H351   H     0.58888   0.97913   0.92735   0.00000  Uiso   1.00
H352   H     0.90243   0.16124   0.24082   0.00000  Uiso   1.00
H353   H     0.39822   0.96763   0.13083   0.00000  Uiso   1.00
H354   H     0.46013   0.87038   0.17484   0.00000  Uiso   1.00
H355   H     0.31978   0.97308   0.03449   0.00000  Uiso   1.00
H356   H     0.46847   0.05944   0.18315   0.00000  Uiso   1.00
H357   H     0.44400   0.76254   0.22356   0.00000  Uiso   1.00
H358   H     0.14806   0.97913   0.92765   0.00000  Uiso   1.00
H359   H     0.46162   0.16123   0.24112   0.00000  Uiso   1.00
O360   O     0.19333   0.69856   0.25233   0.00000  Uiso   1.00
O361   O     0.80508   0.98272   0.86411   0.00000  Uiso   1.00
O362   O     0.21645   0.22164   0.27539   0.00000  Uiso   1.00
N363   N     0.00793   0.77590   0.21729   0.00000  Uiso   1.00
N364   N     0.73124   0.97838   0.94064   0.00000  Uiso   1.00
N365   N     0.02438   0.14865   0.23370   0.00000  Uiso   1.00
N366   N     0.30882   0.77590   0.21746   0.00000  Uiso   1.00
N367   N     0.03214   0.97838   0.94080   0.00000  Uiso   1.00
N368   N     0.32527   0.14864   0.23386   0.00000  Uiso   1.00
