data_job_06876
_audit_creation_date              2018-12-19
_audit_creation_method            'Materials Studio'
_symmetry_space_group_name_H-M    'P1'
_symmetry_Int_Tables_number       1
_symmetry_cell_setting            triclinic
loop_
_symmetry_equiv_pos_as_xyz
  x,y,z
_cell_length_a                    19.4998
_cell_length_b                    23.0038
_cell_length_c                    23.0519
_cell_angle_alpha                 85.3656
_cell_angle_beta                  68.4414
_cell_angle_gamma                 112.5920
loop_
_atom_site_label
_atom_site_type_symbol
_atom_site_fract_x
_atom_site_fract_y
_atom_site_fract_z
_atom_site_U_iso_or_equiv
_atom_site_adp_type
_atom_site_occupancy
C1     C     0.77339   0.91064   0.34542   0.00000  Uiso   1.00
C2     C     0.74704   0.88447   0.41696   0.00000  Uiso   1.00
C3     C     0.67422   0.87527   0.46729   0.00000  Uiso   1.00
C4     C     0.66154   0.85085   0.52936   0.00000  Uiso   1.00
C5     C     0.61181   0.81247   0.63874   0.00000  Uiso   1.00
C6     C     0.85707   0.96981   0.32081   0.00000  Uiso   1.00
C7     C     0.87675   0.03236   0.29029   0.00000  Uiso   1.00
C8     C     0.95670   0.07977   0.27142   0.00000  Uiso   1.00
C9     C     0.07780   0.17388   0.23149   0.00000  Uiso   1.00
C10    C     0.78938   0.85914   0.31269   0.00000  Uiso   1.00
C11    C     0.75217   0.82865   0.27533   0.00000  Uiso   1.00
C12    C     0.77515   0.78290   0.24961   0.00000  Uiso   1.00
C13    C     0.79116   0.70517   0.19706   0.00000  Uiso   1.00
C14    C     0.88037   0.88363   0.36616   0.00000  Uiso   1.00
C15    C     0.80515   0.86980   0.42822   0.00000  Uiso   1.00
C16    C     0.79258   0.84538   0.49024   0.00000  Uiso   1.00
C17    C     0.71975   0.83614   0.54065   0.00000  Uiso   1.00
C18    C     0.91518   0.95514   0.33208   0.00000  Uiso   1.00
C19    C     0.99512   0.00247   0.31324   0.00000  Uiso   1.00
C20    C     0.01492   0.06507   0.28271   0.00000  Uiso   1.00
C21    C     0.84749   0.84447   0.32396   0.00000  Uiso   1.00
C22    C     0.87053   0.79876   0.29828   0.00000  Uiso   1.00
C23    C     0.83336   0.76820   0.26089   0.00000  Uiso   1.00
H24    H     0.72816   0.92207   0.33664   0.00000  Uiso   1.00
H25    H     0.62927   0.88664   0.45855   0.00000  Uiso   1.00
H26    H     0.83178   0.04370   0.28158   0.00000  Uiso   1.00
H27    H     0.70721   0.84002   0.26662   0.00000  Uiso   1.00
H28    H     0.54527   0.84090   0.59867   0.00000  Uiso   1.00
H29    H     0.97228   0.17207   0.22550   0.00000  Uiso   1.00
H30    H     0.70961   0.74257   0.19396   0.00000  Uiso   1.00
H31    H     0.92562   0.87221   0.37493   0.00000  Uiso   1.00
H32    H     0.83756   0.83403   0.49894   0.00000  Uiso   1.00
H33    H     0.04007   0.99110   0.32197   0.00000  Uiso   1.00
H34    H     0.91550   0.78742   0.30701   0.00000  Uiso   1.00
H35    H     0.71433   0.79821   0.63146   0.00000  Uiso   1.00
H36    H     0.14134   0.12938   0.25828   0.00000  Uiso   1.00
H37    H     0.87867   0.69988   0.22674   0.00000  Uiso   1.00
O38    O     0.56833   0.79537   0.69595   0.00000  Uiso   1.00
O39    O     0.12854   0.22984   0.20635   0.00000  Uiso   1.00
O40    O     0.78392   0.66635   0.16498   0.00000  Uiso   1.00
N41    N     0.59714   0.83608   0.58937   0.00000  Uiso   1.00
N42    N     0.99636   0.14571   0.24048   0.00000  Uiso   1.00
N43    N     0.75080   0.74417   0.21098   0.00000  Uiso   1.00
N44    N     0.68811   0.81311   0.60701   0.00000  Uiso   1.00
N45    N     0.08733   0.12273   0.25812   0.00000  Uiso   1.00
N46    N     0.84177   0.72120   0.22862   0.00000  Uiso   1.00
C47    C     0.58106   0.82460   0.84178   0.00000  Uiso   1.00
C48    C     0.48848   0.78350   0.88153   0.00000  Uiso   1.00
C49    C     0.43322   0.74915   0.85797   0.00000  Uiso   1.00
C50    C     0.35104   0.71451   0.90211   0.00000  Uiso   1.00
C51    C     0.21122   0.65075   0.95388   0.00000  Uiso   1.00
C52    C     0.59994   0.89259   0.85233   0.00000  Uiso   1.00
C53    C     0.63839   0.94996   0.80421   0.00000  Uiso   1.00
C54    C     0.65005   0.00716   0.82378   0.00000  Uiso   1.00
C55    C     0.68332   0.11276   0.83021   0.00000  Uiso   1.00
C56    C     0.62210   0.79743   0.87392   0.00000  Uiso   1.00
C57    C     0.67921   0.77481   0.84395   0.00000  Uiso   1.00
C58    C     0.70955   0.75190   0.88169   0.00000  Uiso   1.00
C59    C     0.77723   0.70977   0.92165   0.00000  Uiso   1.00
C60    C     0.53340   0.82417   0.96207   0.00000  Uiso   1.00
C61    C     0.46260   0.78326   0.94686   0.00000  Uiso   1.00
C62    C     0.38049   0.74867   0.99105   0.00000  Uiso   1.00
C63    C     0.32511   0.71428   0.96756   0.00000  Uiso   1.00
C64    C     0.57405   0.89235   0.91766   0.00000  Uiso   1.00
C65    C     0.58566   0.94948   0.93730   0.00000  Uiso   1.00
C66    C     0.62411   0.00692   0.88923   0.00000  Uiso   1.00
C67    C     0.59621   0.79719   0.93926   0.00000  Uiso   1.00
C68    C     0.62647   0.77433   0.97705   0.00000  Uiso   1.00
C69    C     0.68361   0.75167   0.94715   0.00000  Uiso   1.00
H70    H     0.60122   0.82479   0.79091   0.00000  Uiso   1.00
H71    H     0.45327   0.74935   0.80740   0.00000  Uiso   1.00
H72    H     0.65842   0.95013   0.75365   0.00000  Uiso   1.00
H73    H     0.69923   0.77500   0.79339   0.00000  Uiso   1.00
H74    H     0.27783   0.66562   0.85448   0.00000  Uiso   1.00
H75    H     0.71042   0.08898   0.74116   0.00000  Uiso   1.00
H76    H     0.79648   0.71969   0.82496   0.00000  Uiso   1.00
H77    H     0.51325   0.82399   0.01294   0.00000  Uiso   1.00
H78    H     0.36047   0.74850   0.04161   0.00000  Uiso   1.00
H79    H     0.56562   0.94928   0.98787   0.00000  Uiso   1.00
H80    H     0.60643   0.77415   0.02761   0.00000  Uiso   1.00
H81    H     0.20251   0.66494   0.04458   0.00000  Uiso   1.00
H82    H     0.63511   0.08830   0.93126   0.00000  Uiso   1.00
H83    H     0.72116   0.71900   0.01505   0.00000  Uiso   1.00
O84    O     0.14125   0.61566   0.96439   0.00000  Uiso   1.00
O85    O     0.70881   0.17108   0.81571   0.00000  Uiso   1.00
O86    O     0.82171   0.68658   0.92564   0.00000  Uiso   1.00
N87    N     0.28107   0.67581   0.89529   0.00000  Uiso   1.00
N88    N     0.68551   0.07162   0.78934   0.00000  Uiso   1.00
N89    N     0.76598   0.72638   0.86768   0.00000  Uiso   1.00
N90    N     0.24054   0.67544   0.99758   0.00000  Uiso   1.00
N91    N     0.64498   0.07125   0.89163   0.00000  Uiso   1.00
N92    N     0.72545   0.72601   0.96997   0.00000  Uiso   1.00
C93    C     0.31432   0.90157   0.88830   0.00000  Uiso   1.00
C94    C     0.31804   0.86725   0.83411   0.00000  Uiso   1.00
C95    C     0.37936   0.84938   0.80180   0.00000  Uiso   1.00
C96    C     0.37159   0.81845   0.75369   0.00000  Uiso   1.00
C97    C     0.38753   0.76711   0.67184   0.00000  Uiso   1.00
C98    C     0.30923   0.96345   0.86615   0.00000  Uiso   1.00
C99    C     0.36313   0.02646   0.86080   0.00000  Uiso   1.00
C100   C     0.34793   0.07650   0.83967   0.00000  Uiso   1.00
C101   C     0.35015   0.17451   0.80762   0.00000  Uiso   1.00
C102   C     0.23153   0.85813   0.94544   0.00000  Uiso   1.00
C103   C     0.22009   0.83260   0.00676   0.00000  Uiso   1.00
C104   C     0.13947   0.79397   0.05239   0.00000  Uiso   1.00
C105   C     0.02106   0.72845   0.14345   0.00000  Uiso   1.00
C106   C     0.19149   0.87840   0.86031   0.00000  Uiso   1.00
C107   C     0.25132   0.85467   0.81891   0.00000  Uiso   1.00
C108   C     0.24346   0.82375   0.77084   0.00000  Uiso   1.00
C109   C     0.30475   0.80583   0.73846   0.00000  Uiso   1.00
C110   C     0.24251   0.95087   0.85095   0.00000  Uiso   1.00
C111   C     0.22722   0.00083   0.82984   0.00000  Uiso   1.00
C112   C     0.28109   0.06390   0.82444   0.00000  Uiso   1.00
C113   C     0.16481   0.84554   0.93024   0.00000  Uiso   1.00
C114   C     0.08419   0.80696   0.97580   0.00000  Uiso   1.00
C115   C     0.07263   0.78137   0.03717   0.00000  Uiso   1.00
H116   H     0.36627   0.91137   0.90013   0.00000  Uiso   1.00
H117   H     0.43099   0.85914   0.81357   0.00000  Uiso   1.00
H118   H     0.41475   0.03619   0.87257   0.00000  Uiso   1.00
H119   H     0.27174   0.84235   0.01850   0.00000  Uiso   1.00
H120   H     0.47333   0.79570   0.71089   0.00000  Uiso   1.00
H121   H     0.43908   0.16901   0.83530   0.00000  Uiso   1.00
H122   H     0.13751   0.76027   0.14304   0.00000  Uiso   1.00
H123   H     0.13954   0.86860   0.84848   0.00000  Uiso   1.00
H124   H     0.19182   0.81401   0.75909   0.00000  Uiso   1.00
H125   H     0.17558   0.99107   0.81808   0.00000  Uiso   1.00
H126   H     0.03257   0.79723   0.96402   0.00000  Uiso   1.00
H127   H     0.27922   0.75908   0.66666   0.00000  Uiso   1.00
H128   H     0.24496   0.13240   0.79108   0.00000  Uiso   1.00
H129   H     0.94339   0.72365   0.09882   0.00000  Uiso   1.00
O130   O     0.41477   0.74227   0.63088   0.00000  Uiso   1.00
O131   O     0.36982   0.23205   0.79413   0.00000  Uiso   1.00
O132   O     0.97417   0.69578   0.19787   0.00000  Uiso   1.00
N133   N     0.42046   0.79456   0.71275   0.00000  Uiso   1.00
N134   N     0.38845   0.14359   0.82907   0.00000  Uiso   1.00
N135   N     0.10650   0.76146   0.11678   0.00000  Uiso   1.00
N136   N     0.31601   0.77485   0.68896   0.00000  Uiso   1.00
N137   N     0.28399   0.12388   0.80527   0.00000  Uiso   1.00
N138   N     0.00205   0.74175   0.09299   0.00000  Uiso   1.00
C139   C     0.71162   0.44644   0.83950   0.00000  Uiso   1.00
C140   C     0.65035   0.42373   0.91052   0.00000  Uiso   1.00
C141   C     0.66965   0.42098   0.96262   0.00000  Uiso   1.00
C142   C     0.60479   0.39881   0.02384   0.00000  Uiso   1.00
C143   C     0.52201   0.36642   0.13278   0.00000  Uiso   1.00
C144   C     0.70068   0.50161   0.80898   0.00000  Uiso   1.00
C145   C     0.76231   0.56434   0.77568   0.00000  Uiso   1.00
C146   C     0.73982   0.60772   0.75141   0.00000  Uiso   1.00
C147   C     0.73520   0.69624   0.70266   0.00000  Uiso   1.00
C148   C     0.68138   0.39036   0.81003   0.00000  Uiso   1.00
C149   C     0.72678   0.35955   0.77761   0.00000  Uiso   1.00
C150   C     0.68804   0.30927   0.75422   0.00000  Uiso   1.00
C151   C     0.65344   0.22505   0.70711   0.00000  Uiso   1.00
C152   C     0.56211   0.41196   0.85559   0.00000  Uiso   1.00
C153   C     0.56914   0.40500   0.91926   0.00000  Uiso   1.00
C154   C     0.50423   0.38283   0.98042   0.00000  Uiso   1.00
C155   C     0.52344   0.38004   0.03259   0.00000  Uiso   1.00
C156   C     0.61948   0.48289   0.81771   0.00000  Uiso   1.00
C157   C     0.59689   0.52619   0.79348   0.00000  Uiso   1.00
C158   C     0.65847   0.58896   0.76016   0.00000  Uiso   1.00
C159   C     0.60017   0.37163   0.81877   0.00000  Uiso   1.00
C160   C     0.56136   0.32140   0.79541   0.00000  Uiso   1.00
C161   C     0.60669   0.29051   0.76297   0.00000  Uiso   1.00
H162   H     0.77485   0.46103   0.83270   0.00000  Uiso   1.00
H163   H     0.73251   0.43548   0.95583   0.00000  Uiso   1.00
H164   H     0.82515   0.57882   0.76892   0.00000  Uiso   1.00
H165   H     0.78962   0.37406   0.77086   0.00000  Uiso   1.00
H166   H     0.64976   0.39893   0.09621   0.00000  Uiso   1.00
H167   H     0.84510   0.70114   0.70208   0.00000  Uiso   1.00
H168   H     0.77019   0.26937   0.70615   0.00000  Uiso   1.00
H169   H     0.49888   0.39738   0.86239   0.00000  Uiso   1.00
H170   H     0.44140   0.36834   0.98716   0.00000  Uiso   1.00
H171   H     0.53404   0.51167   0.80025   0.00000  Uiso   1.00
H172   H     0.49851   0.30691   0.80219   0.00000  Uiso   1.00
H173   H     0.41348   0.34443   0.12163   0.00000  Uiso   1.00
H174   H     0.60883   0.64665   0.72750   0.00000  Uiso   1.00
H175   H     0.53391   0.21488   0.73158   0.00000  Uiso   1.00
O176   O     0.49878   0.35374   0.19046   0.00000  Uiso   1.00
O177   O     0.75508   0.75024   0.67337   0.00000  Uiso   1.00
O178   O     0.65679   0.18376   0.67872   0.00000  Uiso   1.00
N179   N     0.60204   0.39007   0.08507   0.00000  Uiso   1.00
N180   N     0.78467   0.67263   0.71659   0.00000  Uiso   1.00
N181   N     0.71464   0.26897   0.72038   0.00000  Uiso   1.00
N182   N     0.47490   0.36075   0.09875   0.00000  Uiso   1.00
N183   N     0.65754   0.64331   0.73027   0.00000  Uiso   1.00
N184   N     0.58750   0.23965   0.73407   0.00000  Uiso   1.00
C185   C     0.19203   0.30838   0.43517   0.00000  Uiso   1.00
C186   C     0.25977   0.31124   0.45465   0.00000  Uiso   1.00
C187   C     0.32485   0.29799   0.42043   0.00000  Uiso   1.00
C188   C     0.38037   0.30335   0.44632   0.00000  Uiso   1.00
C189   C     0.48700   0.30508   0.46774   0.00000  Uiso   1.00
C190   C     0.19374   0.37542   0.43213   0.00000  Uiso   1.00
C191   C     0.20329   0.41613   0.37897   0.00000  Uiso   1.00
C192   C     0.20321   0.47551   0.38590   0.00000  Uiso   1.00
C193   C     0.20726   0.57686   0.37236   0.00000  Uiso   1.00
C194   C     0.11083   0.26115   0.49192   0.00000  Uiso   1.00
C195   C     0.05066   0.20579   0.48903   0.00000  Uiso   1.00
C196   C     0.98077   0.16896   0.54631   0.00000  Uiso   1.00
C197   C     0.85610   0.09289   0.62560   0.00000  Uiso   1.00
C198   C     0.17489   0.34144   0.54200   0.00000  Uiso   1.00
C199   C     0.25047   0.32920   0.51268   0.00000  Uiso   1.00
C200   C     0.30590   0.33457   0.53863   0.00000  Uiso   1.00
C201   C     0.37105   0.32133   0.50445   0.00000  Uiso   1.00
C202   C     0.18444   0.39338   0.49015   0.00000  Uiso   1.00
C203   C     0.18434   0.45270   0.49716   0.00000  Uiso   1.00
C204   C     0.19389   0.49350   0.44403   0.00000  Uiso   1.00
C205   C     0.10153   0.27910   0.54995   0.00000  Uiso   1.00
C206   C     0.03171   0.24236   0.60723   0.00000  Uiso   1.00
C207   C     0.97145   0.18695   0.60444   0.00000  Uiso   1.00
H208   H     0.19927   0.29441   0.38999   0.00000  Uiso   1.00
H209   H     0.33204   0.28411   0.37553   0.00000  Uiso   1.00
H210   H     0.21048   0.40222   0.33407   0.00000  Uiso   1.00
H211   H     0.05788   0.19191   0.44412   0.00000  Uiso   1.00
H212   H     0.47515   0.28063   0.38507   0.00000  Uiso   1.00
H213   H     0.21881   0.52967   0.29767   0.00000  Uiso   1.00
H214   H     0.89702   0.08618   0.52973   0.00000  Uiso   1.00
H215   H     0.16765   0.35542   0.58717   0.00000  Uiso   1.00
H216   H     0.29868   0.34847   0.58353   0.00000  Uiso   1.00
H217   H     0.17713   0.46658   0.54208   0.00000  Uiso   1.00
H218   H     0.02453   0.25627   0.65213   0.00000  Uiso   1.00
H219   H     0.44808   0.33287   0.55389   0.00000  Uiso   1.00
H220   H     0.19174   0.58191   0.46649   0.00000  Uiso   1.00
H221   H     0.86996   0.13842   0.69855   0.00000  Uiso   1.00
O222   O     0.54839   0.30109   0.46352   0.00000  Uiso   1.00
O223   O     0.21208   0.62781   0.34885   0.00000  Uiso   1.00
O224   O     0.78991   0.04597   0.65331   0.00000  Uiso   1.00
N225   N     0.45078   0.29386   0.42531   0.00000  Uiso   1.00
N226   N     0.21114   0.52670   0.34359   0.00000  Uiso   1.00
N227   N     0.91029   0.11209   0.56054   0.00000  Uiso   1.00
N228   N     0.43622   0.32197   0.51615   0.00000  Uiso   1.00
N229   N     0.19658   0.55481   0.43443   0.00000  Uiso   1.00
N230   N     0.89572   0.14020   0.65139   0.00000  Uiso   1.00
C231   C     0.87998   0.41570   0.23505   0.00000  Uiso   1.00
C232   C     0.93237   0.39560   0.18111   0.00000  Uiso   1.00
C233   C     0.93006   0.39419   0.12177   0.00000  Uiso   1.00
C234   C     0.98287   0.37438   0.07898   0.00000  Uiso   1.00
C235   C     0.05616   0.34591   0.99278   0.00000  Uiso   1.00
C236   C     0.94043   0.47083   0.24970   0.00000  Uiso   1.00
C237   C     0.94488   0.53267   0.24804   0.00000  Uiso   1.00
C238   C     0.00447   0.57618   0.26301   0.00000  Uiso   1.00
C239   C     0.09023   0.66448   0.28334   0.00000  Uiso   1.00
C240   C     0.83423   0.35828   0.29456   0.00000  Uiso   1.00
C241   C     0.74939   0.32549   0.33063   0.00000  Uiso   1.00
C242   C     0.71957   0.27425   0.38338   0.00000  Uiso   1.00
C243   C     0.64044   0.18781   0.47337   0.00000  Uiso   1.00
C244   C     0.97787   0.38303   0.26459   0.00000  Uiso   1.00
C245   C     0.98554   0.37786   0.19716   0.00000  Uiso   1.00
C246   C     0.03837   0.35804   0.15445   0.00000  Uiso   1.00
C247   C     0.03613   0.35660   0.09506   0.00000  Uiso   1.00
C248   C     0.99360   0.45309   0.26575   0.00000  Uiso   1.00
C249   C     0.05319   0.49652   0.28073   0.00000  Uiso   1.00
C250   C     0.05774   0.55840   0.27908   0.00000  Uiso   1.00
C251   C     0.88740   0.34053   0.31061   0.00000  Uiso   1.00
C252   C     0.85770   0.28934   0.36332   0.00000  Uiso   1.00
C253   C     0.77284   0.25648   0.39945   0.00000  Uiso   1.00
H254   H     0.83859   0.42952   0.22255   0.00000  Uiso   1.00
H255   H     0.88891   0.40794   0.10936   0.00000  Uiso   1.00
H256   H     0.90373   0.54638   0.23563   0.00000  Uiso   1.00
H257   H     0.70827   0.33924   0.31820   0.00000  Uiso   1.00
H258   H     0.96817   0.37620   0.99094   0.00000  Uiso   1.00
H259   H     0.99939   0.66812   0.25719   0.00000  Uiso   1.00
H260   H     0.58723   0.23132   0.43132   0.00000  Uiso   1.00
H261   H     0.01927   0.36921   0.27709   0.00000  Uiso   1.00
H262   H     0.07951   0.34431   0.16689   0.00000  Uiso   1.00
H263   H     0.09432   0.48276   0.29315   0.00000  Uiso   1.00
H264   H     0.89887   0.27562   0.37572   0.00000  Uiso   1.00
H265   H     0.12287   0.32457   0.03763   0.00000  Uiso   1.00
H266   H     0.15409   0.61648   0.30388   0.00000  Uiso   1.00
H267   H     0.74193   0.17968   0.47800   0.00000  Uiso   1.00
O268   O     0.08190   0.33512   0.94080   0.00000  Uiso   1.00
O269   O     0.12285   0.71809   0.29012   0.00000  Uiso   1.00
O270   O     0.58211   0.14502   0.51857   0.00000  Uiso   1.00
N271   N     0.99630   0.36745   0.01706   0.00000  Uiso   1.00
N272   N     0.02550   0.64038   0.26597   0.00000  Uiso   1.00
N273   N     0.64016   0.23202   0.42878   0.00000  Uiso   1.00
N274   N     0.07954   0.33967   0.04218   0.00000  Uiso   1.00
N275   N     0.10874   0.61260   0.29110   0.00000  Uiso   1.00
N276   N     0.72340   0.20424   0.45390   0.00000  Uiso   1.00
C277   C     0.25379   0.07687   0.59761   0.00000  Uiso   1.00
C278   C     0.27612   0.10186   0.52669   0.00000  Uiso   1.00
C279   C     0.34806   0.11209   0.47467   0.00000  Uiso   1.00
C280   C     0.35689   0.13514   0.41353   0.00000  Uiso   1.00
C281   C     0.40082   0.17204   0.30474   0.00000  Uiso   1.00
C282   C     0.17105   0.01635   0.62438   0.00000  Uiso   1.00
C283   C     0.15465   0.95468   0.65451   0.00000  Uiso   1.00
C284   C     0.07503   0.90576   0.67562   0.00000  Uiso   1.00
C285   C     0.95582   0.80992   0.71854   0.00000  Uiso   1.00
C286   C     0.23727   0.12798   0.63074   0.00000  Uiso   1.00
C287   C     0.27653   0.16016   0.66624   0.00000  Uiso   1.00
C288   C     0.25264   0.20521   0.69272   0.00000  Uiso   1.00
C289   C     0.23624   0.28268   0.74552   0.00000  Uiso   1.00
C290   C     0.14154   0.09964   0.58155   0.00000  Uiso   1.00
C291   C     0.21515   0.11423   0.51797   0.00000  Uiso   1.00
C292   C     0.22387   0.13728   0.45690   0.00000  Uiso   1.00
C293   C     0.29581   0.14754   0.40479   0.00000  Uiso   1.00
C294   C     0.11008   0.02872   0.61566   0.00000  Uiso   1.00
C295   C     0.03046   0.97988   0.63674   0.00000  Uiso   1.00
C296   C     0.01395   0.91815   0.66689   0.00000  Uiso   1.00
C297   C     0.17630   0.14035   0.62202   0.00000  Uiso   1.00
C298   C     0.15234   0.18536   0.64846   0.00000  Uiso   1.00
C299   C     0.19156   0.21760   0.68399   0.00000  Uiso   1.00
H300   H     0.30125   0.06723   0.60440   0.00000  Uiso   1.00
H301   H     0.39523   0.10250   0.48144   0.00000  Uiso   1.00
H302   H     0.20184   0.94513   0.66126   0.00000  Uiso   1.00
H303   H     0.32370   0.15057   0.67298   0.00000  Uiso   1.00
H304   H     0.47251   0.14704   0.34126   0.00000  Uiso   1.00
H305   H     0.06475   0.81521   0.72044   0.00000  Uiso   1.00
H306   H     0.32171   0.24843   0.74516   0.00000  Uiso   1.00
H307   H     0.09407   0.10927   0.57476   0.00000  Uiso   1.00
H308   H     0.17668   0.14685   0.45016   0.00000  Uiso   1.00
H309   H     0.98330   0.98947   0.62998   0.00000  Uiso   1.00
H310   H     0.10516   0.19492   0.64170   0.00000  Uiso   1.00
H311   H     0.29513   0.18303   0.31588   0.00000  Uiso   1.00
H312   H     0.88736   0.85120   0.69506   0.00000  Uiso   1.00
H313   H     0.14433   0.28442   0.71978   0.00000  Uiso   1.00
O314   O     0.44189   0.18897   0.24714   0.00000  Uiso   1.00
O315   O     0.90692   0.75363   0.74462   0.00000  Uiso   1.00
O316   O     0.24405   0.32200   0.77705   0.00000  Uiso   1.00
N317   N     0.41943   0.15036   0.35239   0.00000  Uiso   1.00
N318   N     0.03821   0.84012   0.70689   0.00000  Uiso   1.00
N319   N     0.27843   0.24513   0.73001   0.00000  Uiso   1.00
N320   N     0.32399   0.16973   0.33873   0.00000  Uiso   1.00
N321   N     0.94276   0.85949   0.69323   0.00000  Uiso   1.00
N322   N     0.18298   0.26450   0.71635   0.00000  Uiso   1.00
C323   C     0.45495   0.16812   0.09383   0.00000  Uiso   1.00
C324   C     0.54642   0.21191   0.05191   0.00000  Uiso   1.00
C325   C     0.60325   0.24711   0.07380   0.00000  Uiso   1.00
C326   C     0.68402   0.28427   0.02780   0.00000  Uiso   1.00
C327   C     0.82255   0.35196   0.97267   0.00000  Uiso   1.00
C328   C     0.43848   0.10118   0.08097   0.00000  Uiso   1.00
C329   C     0.40455   0.04329   0.12730   0.00000  Uiso   1.00
C330   C     0.39445   0.98724   0.10577   0.00000  Uiso   1.00
C331   C     0.36535   0.88302   0.09577   0.00000  Uiso   1.00
C332   C     0.40900   0.19359   0.06594   0.00000  Uiso   1.00
C333   C     0.35026   0.21337   0.09964   0.00000  Uiso   1.00
C334   C     0.31532   0.23510   0.06544   0.00000  Uiso   1.00
C335   C     0.24045   0.27435   0.03211   0.00000  Uiso   1.00
C336   C     0.49734   0.17153   0.97320   0.00000  Uiso   1.00
C337   C     0.56944   0.21376   0.98638   0.00000  Uiso   1.00
C338   C     0.65015   0.25088   0.94033   0.00000  Uiso   1.00
C339   C     0.70708   0.28613   0.96216   0.00000  Uiso   1.00
C340   C     0.46151   0.10304   0.01545   0.00000  Uiso   1.00
C341   C     0.45145   0.04706   0.99384   0.00000  Uiso   1.00
C342   C     0.41752   0.98909   0.04013   0.00000  Uiso   1.00
C343   C     0.43202   0.19544   0.00042   0.00000  Uiso   1.00
C344   C     0.39717   0.21714   0.96617   0.00000  Uiso   1.00
C345   C     0.33839   0.23696   0.99981   0.00000  Uiso   1.00
H346   H     0.43702   0.16667   0.14484   0.00000  Uiso   1.00
H347   H     0.58540   0.24566   0.12451   0.00000  Uiso   1.00
H348   H     0.38673   0.04187   0.17800   0.00000  Uiso   1.00
H349   H     0.33246   0.21193   0.15034   0.00000  Uiso   1.00
H350   H     0.76007   0.33403   0.07308   0.00000  Uiso   1.00
H351   H     0.34113   0.90432   0.18588   0.00000  Uiso   1.00
H352   H     0.22668   0.26292   0.12754   0.00000  Uiso   1.00
H353   H     0.51526   0.17297   0.92218   0.00000  Uiso   1.00
H354   H     0.66795   0.25231   0.88963   0.00000  Uiso   1.00
H355   H     0.46927   0.04851   0.94313   0.00000  Uiso   1.00
H356   H     0.41500   0.21857   0.91547   0.00000  Uiso   1.00
H357   H     0.82707   0.33942   0.88245   0.00000  Uiso   1.00
H358   H     0.40812   0.90971   0.99525   0.00000  Uiso   1.00
H359   H     0.29368   0.26831   0.93691   0.00000  Uiso   1.00
O360   O     0.89260   0.38878   0.96037   0.00000  Uiso   1.00
O361   O     0.34295   0.82502   0.10837   0.00000  Uiso   1.00
O362   O     0.19280   0.29550   0.03183   0.00000  Uiso   1.00
N363   N     0.75488   0.32442   0.03268   0.00000  Uiso   1.00
N364   N     0.36321   0.92267   0.13814   0.00000  Uiso   1.00
N365   N     0.25619   0.25791   0.08360   0.00000  Uiso   1.00
N366   N     0.79093   0.32732   0.93010   0.00000  Uiso   1.00
N367   N     0.39926   0.92557   0.03556   0.00000  Uiso   1.00
N368   N     0.29224   0.26082   0.98103   0.00000  Uiso   1.00
C369   C     0.71099   0.09493   0.04973   0.00000  Uiso   1.00
C370   C     0.70389   0.12856   0.10453   0.00000  Uiso   1.00
C371   C     0.64000   0.14387   0.13666   0.00000  Uiso   1.00
C372   C     0.64487   0.17460   0.18542   0.00000  Uiso   1.00
C373   C     0.62372   0.22453   0.26811   0.00000  Uiso   1.00
C374   C     0.71933   0.03461   0.07157   0.00000  Uiso   1.00
C375   C     0.66842   0.97093   0.07598   0.00000  Uiso   1.00
C376   C     0.68630   0.92259   0.09699   0.00000  Uiso   1.00
C377   C     0.68915   0.82667   0.12846   0.00000  Uiso   1.00
C378   C     0.79355   0.14035   0.99327   0.00000  Uiso   1.00
C379   C     0.80505   0.16557   0.93184   0.00000  Uiso   1.00
C380   C     0.88542   0.20624   0.88692   0.00000  Uiso   1.00
C381   C     0.00351   0.27450   0.79682   0.00000  Uiso   1.00
C382   C     0.83327   0.12229   0.07919   0.00000  Uiso   1.00
C383   C     0.77030   0.14342   0.12053   0.00000  Uiso   1.00
C384   C     0.77528   0.17415   0.16925   0.00000  Uiso   1.00
C385   C     0.71140   0.18950   0.20145   0.00000  Uiso   1.00
C386   C     0.78574   0.04948   0.08757   0.00000  Uiso   1.00
C387   C     0.80370   0.00121   0.10857   0.00000  Uiso   1.00
C388   C     0.75283   0.93748   0.11302   0.00000  Uiso   1.00
C389   C     0.85996   0.15522   0.00927   0.00000  Uiso   1.00
C390   C     0.94033   0.19585   0.96444   0.00000  Uiso   1.00
C391   C     0.95195   0.22113   0.90295   0.00000  Uiso   1.00
H392   H     0.65929   0.08335   0.03727   0.00000  Uiso   1.00
H393   H     0.58861   0.13235   0.12427   0.00000  Uiso   1.00
H394   H     0.61704   0.95944   0.06359   0.00000  Uiso   1.00
H395   H     0.75364   0.15405   0.91948   0.00000  Uiso   1.00
H396   H     0.53952   0.19321   0.22780   0.00000  Uiso   1.00
H397   H     0.59948   0.82863   0.09983   0.00000  Uiso   1.00
H398   H     0.88754   0.23900   0.79593   0.00000  Uiso   1.00
H399   H     0.88497   0.13387   0.09164   0.00000  Uiso   1.00
H400   H     0.82668   0.18564   0.18163   0.00000  Uiso   1.00
H401   H     0.85510   0.01274   0.12095   0.00000  Uiso   1.00
H402   H     0.99171   0.20735   0.97683   0.00000  Uiso   1.00
H403   H     0.73274   0.23646   0.27435   0.00000  Uiso   1.00
H404   H     0.79270   0.87189   0.14638   0.00000  Uiso   1.00
H405   H     0.08076   0.28226   0.84249   0.00000  Uiso   1.00
O406   O     0.59370   0.24796   0.30930   0.00000  Uiso   1.00
O407   O     0.67237   0.76966   0.14140   0.00000  Uiso   1.00
O408   O     0.05030   0.30806   0.74270   0.00000  Uiso   1.00
N409   N     0.59300   0.19629   0.22640   0.00000  Uiso   1.00
N410   N     0.64905   0.85544   0.10677   0.00000  Uiso   1.00
N411   N     0.91837   0.23909   0.82264   0.00000  Uiso   1.00
N412   N     0.69697   0.21957   0.25144   0.00000  Uiso   1.00
N413   N     0.75302   0.87871   0.13181   0.00000  Uiso   1.00
N414   N     0.02234   0.26236   0.84769   0.00000  Uiso   1.00
C415   C     0.29601   0.54886   0.11801   0.00000  Uiso   1.00
C416   C     0.35577   0.56896   0.04677   0.00000  Uiso   1.00
C417   C     0.33485   0.56944   0.99538   0.00000  Uiso   1.00
C418   C     0.39849   0.58943   0.93381   0.00000  Uiso   1.00
C419   C     0.47885   0.61775   0.82468   0.00000  Uiso   1.00
C420   C     0.30700   0.49460   0.15014   0.00000  Uiso   1.00
C421   C     0.24508   0.43255   0.18568   0.00000  Uiso   1.00
C422   C     0.26768   0.38995   0.21114   0.00000  Uiso   1.00
C423   C     0.27232   0.30283   0.26254   0.00000  Uiso   1.00
C424   C     0.32821   0.60677   0.14480   0.00000  Uiso   1.00
C425   C     0.28412   0.63902   0.17586   0.00000  Uiso   1.00
C426   C     0.32457   0.69085   0.19683   0.00000  Uiso   1.00
C427   C     0.36215   0.77788   0.23993   0.00000  Uiso   1.00
C428   C     0.44623   0.58352   0.10003   0.00000  Uiso   1.00
C429   C     0.43736   0.58779   0.03701   0.00000  Uiso   1.00
C430   C     0.50105   0.60779   0.97550   0.00000  Uiso   1.00
C431   C     0.48023   0.60829   0.92403   0.00000  Uiso   1.00
C432   C     0.38859   0.51342   0.14038   0.00000  Uiso   1.00
C433   C     0.41128   0.47090   0.16580   0.00000  Uiso   1.00
C434   C     0.34941   0.40881   0.20136   0.00000  Uiso   1.00
C435   C     0.40981   0.62559   0.13503   0.00000  Uiso   1.00
C436   C     0.45032   0.67737   0.15597   0.00000  Uiso   1.00
C437   C     0.40631   0.70971   0.18705   0.00000  Uiso   1.00
H438   H     0.23249   0.53420   0.12561   0.00000  Uiso   1.00
H439   H     0.27170   0.55486   0.00296   0.00000  Uiso   1.00
H440   H     0.18195   0.41800   0.19323   0.00000  Uiso   1.00
H441   H     0.22099   0.62444   0.18340   0.00000  Uiso   1.00
H442   H     0.35115   0.58604   0.86267   0.00000  Uiso   1.00
H443   H     0.16189   0.29748   0.26389   0.00000  Uiso   1.00
H444   H     0.24421   0.73279   0.24317   0.00000  Uiso   1.00
H445   H     0.50975   0.59818   0.09244   0.00000  Uiso   1.00
H446   H     0.56418   0.62235   0.96796   0.00000  Uiso   1.00
H447   H     0.47442   0.48549   0.15823   0.00000  Uiso   1.00
H448   H     0.51346   0.69193   0.14841   0.00000  Uiso   1.00
H449   H     0.58853   0.64082   0.83426   0.00000  Uiso   1.00
H450   H     0.39928   0.35225   0.23549   0.00000  Uiso   1.00
H451   H     0.48160   0.78757   0.21477   0.00000  Uiso   1.00
O452   O     0.50064   0.62816   0.76718   0.00000  Uiso   1.00
O453   O     0.25234   0.24958   0.29358   0.00000  Uiso   1.00
O454   O     0.36034   0.82070   0.26639   0.00000  Uiso   1.00
N455   N     0.39955   0.59563   0.87306   0.00000  Uiso   1.00
N456   N     0.22261   0.32583   0.24818   0.00000  Uiso   1.00
N457   N     0.29956   0.73281   0.22882   0.00000  Uiso   1.00
N458   N     0.52728   0.62511   0.85778   0.00000  Uiso   1.00
N459   N     0.35035   0.35531   0.23289   0.00000  Uiso   1.00
N460   N     0.42730   0.76228   0.21354   0.00000  Uiso   1.00
C461   C     0.68746   0.61549   0.56578   0.00000  Uiso   1.00
C462   C     0.65149   0.64136   0.52731   0.00000  Uiso   1.00
C463   C     0.60140   0.67195   0.54902   0.00000  Uiso   1.00
C464   C     0.57482   0.69206   0.50650   0.00000  Uiso   1.00
C465   C     0.51547   0.73375   0.45620   0.00000  Uiso   1.00
C466   C     0.65906   0.54355   0.56680   0.00000  Uiso   1.00
C467   C     0.61535   0.49192   0.62172   0.00000  Uiso   1.00
C468   C     0.59516   0.42970   0.61244   0.00000  Uiso   1.00
C469   C     0.54762   0.31955   0.62346   0.00000  Uiso   1.00
C470   C     0.78052   0.64873   0.52503   0.00000  Uiso   1.00
C471   C     0.83894   0.68552   0.54483   0.00000  Uiso   1.00
C472   C     0.92101   0.71184   0.50038   0.00000  Uiso   1.00
C473   C     0.06206   0.76499   0.44654   0.00000  Uiso   1.00
C474   C     0.72934   0.59679   0.45165   0.00000  Uiso   1.00
C475   C     0.67423   0.63120   0.46532   0.00000  Uiso   1.00
C476   C     0.64773   0.65127   0.42275   0.00000  Uiso   1.00
C477   C     0.59761   0.68189   0.44440   0.00000  Uiso   1.00
C478   C     0.68180   0.53340   0.50481   0.00000  Uiso   1.00
C479   C     0.66168   0.47124   0.49545   0.00000  Uiso   1.00
C480   C     0.61794   0.41953   0.55034   0.00000  Uiso   1.00
C481   C     0.80327   0.63858   0.46303   0.00000  Uiso   1.00
C482   C     0.88527   0.66484   0.41855   0.00000  Uiso   1.00
C483   C     0.94380   0.70166   0.43828   0.00000  Uiso   1.00
H484   H     0.66975   0.62339   0.61405   0.00000  Uiso   1.00
H485   H     0.58380   0.67980   0.59701   0.00000  Uiso   1.00
H486   H     0.59776   0.49980   0.66969   0.00000  Uiso   1.00
H487   H     0.82131   0.69337   0.59281   0.00000  Uiso   1.00
H488   H     0.49852   0.73784   0.55078   0.00000  Uiso   1.00
H489   H     0.52798   0.35830   0.70404   0.00000  Uiso   1.00
H490   H     0.99938   0.76648   0.54192   0.00000  Uiso   1.00
H491   H     0.74704   0.58888   0.40338   0.00000  Uiso   1.00
H492   H     0.66534   0.64341   0.37478   0.00000  Uiso   1.00
H493   H     0.67930   0.46340   0.44747   0.00000  Uiso   1.00
H494   H     0.90285   0.65697   0.37058   0.00000  Uiso   1.00
H495   H     0.56469   0.70830   0.37041   0.00000  Uiso   1.00
H496   H     0.59416   0.32876   0.52368   0.00000  Uiso   1.00
H497   H     0.06556   0.73694   0.36155   0.00000  Uiso   1.00
O498   O     0.47644   0.75954   0.44559   0.00000  Uiso   1.00
O499   O     0.51510   0.26160   0.64666   0.00000  Uiso   1.00
O500   O     0.13357   0.79712   0.43396   0.00000  Uiso   1.00
N501   N     0.52532   0.72342   0.51225   0.00000  Uiso   1.00
N502   N     0.55285   0.36857   0.65554   0.00000  Uiso   1.00
N503   N     0.99357   0.75016   0.50397   0.00000  Uiso   1.00
N504   N     0.56093   0.70752   0.41520   0.00000  Uiso   1.00
N505   N     0.58846   0.35267   0.55849   0.00000  Uiso   1.00
N506   N     0.02918   0.73427   0.40692   0.00000  Uiso   1.00
C507   C     0.13608   0.59553   0.69138   0.00000  Uiso   1.00
C508   C     0.08749   0.61290   0.75010   0.00000  Uiso   1.00
C509   C     0.09974   0.61547   0.80564   0.00000  Uiso   1.00
C510   C     0.04886   0.63234   0.85392   0.00000  Uiso   1.00
C511   C     0.98265   0.65719   0.94618   0.00000  Uiso   1.00
C512   C     0.07263   0.53826   0.68139   0.00000  Uiso   1.00
C513   C     0.07240   0.47808   0.67914   0.00000  Uiso   1.00
C514   C     0.00903   0.43213   0.66957   0.00000  Uiso   1.00
C515   C     0.91979   0.34111   0.65511   0.00000  Uiso   1.00
C516   C     0.17126   0.65282   0.63374   0.00000  Uiso   1.00
C517   C     0.25397   0.68894   0.59142   0.00000  Uiso   1.00
C518   C     0.27363   0.73942   0.54173   0.00000  Uiso   1.00
C519   C     0.33754   0.82627   0.45329   0.00000  Uiso   1.00
C520   C     0.02394   0.62092   0.67836   0.00000  Uiso   1.00
C521   C     0.02658   0.62669   0.74302   0.00000  Uiso   1.00
C522   C     0.97567   0.64357   0.79123   0.00000  Uiso   1.00
C523   C     0.98785   0.64616   0.84684   0.00000  Uiso   1.00
C524   C     0.01173   0.55205   0.67431   0.00000  Uiso   1.00
C525   C     0.94834   0.50618   0.66474   0.00000  Uiso   1.00
C526   C     0.94801   0.44594   0.66249   0.00000  Uiso   1.00
C527   C     0.11036   0.66661   0.62667   0.00000  Uiso   1.00
C528   C     0.12990   0.71704   0.57702   0.00000  Uiso   1.00
C529   C     0.21262   0.75324   0.53464   0.00000  Uiso   1.00
H530   H     0.18349   0.58479   0.69689   0.00000  Uiso   1.00
H531   H     0.14687   0.60479   0.81110   0.00000  Uiso   1.00
H532   H     0.11955   0.46743   0.68461   0.00000  Uiso   1.00
H533   H     0.30108   0.67826   0.59691   0.00000  Uiso   1.00
H534   H     0.07939   0.63303   0.93461   0.00000  Uiso   1.00
H535   H     0.02180   0.34340   0.66789   0.00000  Uiso   1.00
H536   H     0.40459   0.78797   0.48295   0.00000  Uiso   1.00
H537   H     0.97652   0.63166   0.67285   0.00000  Uiso   1.00
H538   H     0.92855   0.65423   0.78575   0.00000  Uiso   1.00
H539   H     0.90122   0.51687   0.65926   0.00000  Uiso   1.00
H540   H     0.08275   0.72770   0.57156   0.00000  Uiso   1.00
H541   H     0.90219   0.67315   0.91404   0.00000  Uiso   1.00
H542   H     0.84459   0.38352   0.64731   0.00000  Uiso   1.00
H543   H     0.22739   0.82809   0.46238   0.00000  Uiso   1.00
O544   O     0.96294   0.66707   0.99903   0.00000  Uiso   1.00
O545   O     0.88739   0.28710   0.64909   0.00000  Uiso   1.00
O546   O     0.38961   0.87036   0.40646   0.00000  Uiso   1.00
N547   N     0.04428   0.63938   0.91427   0.00000  Uiso   1.00
N548   N     0.99043   0.36859   0.66491   0.00000  Uiso   1.00
N549   N     0.34831   0.78422   0.49200   0.00000  Uiso   1.00
N550   N     0.94893   0.66098   0.90320   0.00000  Uiso   1.00
N551   N     0.89508   0.39019   0.65384   0.00000  Uiso   1.00
N552   N     0.25295   0.80581   0.48093   0.00000  Uiso   1.00
