data_job_01701
_audit_creation_date              2018-12-19
_audit_creation_method            'Materials Studio'
_symmetry_space_group_name_H-M    'P1'
_symmetry_Int_Tables_number       1
_symmetry_cell_setting            triclinic
loop_
_symmetry_equiv_pos_as_xyz
  x,y,z
_cell_length_a                    23.3697
_cell_length_b                    12.9455
_cell_length_c                    17.5972
_cell_angle_alpha                 90.0000
_cell_angle_beta                  152.6447
_cell_angle_gamma                 90.0000
loop_
_atom_site_label
_atom_site_type_symbol
_atom_site_fract_x
_atom_site_fract_y
_atom_site_fract_z
_atom_site_U_iso_or_equiv
_atom_site_adp_type
_atom_site_occupancy
C1     C     0.05373   0.27190   0.78972   0.00000  Uiso   1.00
C2     C     0.93612   0.21595   0.62522   0.00000  Uiso   1.00
C3     C     0.82282   0.21571   0.52953   0.00000  Uiso   1.00
C4     C     0.72652   0.15982   0.38306   0.00000  Uiso   1.00
C5     C     0.54140   0.08107   0.13511   0.00000  Uiso   1.00
C6     C     0.15497   0.18959   0.91427   0.00000  Uiso   1.00
C7     C     0.22569   0.16720   0.06161   0.00000  Uiso   1.00
C8     C     0.31362   0.08913   0.15848   0.00000  Uiso   1.00
C9     C     0.46834   0.96951   0.35933   0.00000  Uiso   1.00
C10    C     0.09095   0.34242   0.76805   0.00000  Uiso   1.00
C11    C     0.10789   0.44853   0.79249   0.00000  Uiso   1.00
C12    C     0.14196   0.49912   0.76629   0.00000  Uiso   1.00
C13    C     0.19729   0.61679   0.74011   0.00000  Uiso   1.00
C14    C     0.08416   0.17307   0.69978   0.00000  Uiso   1.00
C15    C     0.95265   0.16227   0.57637   0.00000  Uiso   1.00
C16    C     0.85649   0.10637   0.43001   0.00000  Uiso   1.00
C17    C     0.74307   0.10605   0.33411   0.00000  Uiso   1.00
C18    C     0.17150   0.13591   0.86542   0.00000  Uiso   1.00
C19    C     0.25936   0.05786   0.96209   0.00000  Uiso   1.00
C20    C     0.33019   0.03535   0.10954   0.00000  Uiso   1.00
C21    C     0.10748   0.28874   0.71919   0.00000  Uiso   1.00
C22    C     0.14155   0.33918   0.69296   0.00000  Uiso   1.00
C23    C     0.15852   0.44534   0.71735   0.00000  Uiso   1.00
H24    H     0.04087   0.31369   0.82777   0.00000  Uiso   1.00
H25    H     0.81007   0.25726   0.56739   0.00000  Uiso   1.00
H26    H     0.21288   0.20877   0.09939   0.00000  Uiso   1.00
H27    H     0.09509   0.49004   0.83030   0.00000  Uiso   1.00
H28    H     0.56150   0.17099   0.25719   0.00000  Uiso   1.00
H29    H     0.41088   0.06876   0.37898   0.00000  Uiso   1.00
H30    H     0.16250   0.66189   0.81156   0.00000  Uiso   1.00
H31    H     0.09703   0.13127   0.66174   0.00000  Uiso   1.00
H32    H     0.86931   0.06483   0.39223   0.00000  Uiso   1.00
H33    H     0.27212   0.01634   0.92425   0.00000  Uiso   1.00
H34    H     0.15433   0.29761   0.65516   0.00000  Uiso   1.00
H35    H     0.60958   0.01480   0.11503   0.00000  Uiso   1.00
H36    H     0.45897   0.91258   0.23683   0.00000  Uiso   1.00
H37    H     0.21058   0.50571   0.66940   0.00000  Uiso   1.00
O38    O     0.43473   0.05245   0.01185   0.00000  Uiso   1.00
O39    O     0.54911   0.91835   0.48361   0.00000  Uiso   1.00
O40    O     0.22323   0.69652   0.73915   0.00000  Uiso   1.00
N41    N     0.60405   0.14337   0.26070   0.00000  Uiso   1.00
N42    N     0.39816   0.04778   0.30950   0.00000  Uiso   1.00
N43    N     0.16598   0.60230   0.77905   0.00000  Uiso   1.00
N44    N     0.62993   0.05933   0.18421   0.00000  Uiso   1.00
N45    N     0.42404   0.96374   0.23300   0.00000  Uiso   1.00
N46    N     0.19185   0.51826   0.70255   0.00000  Uiso   1.00
C47    C     0.94627   0.77190   0.71028   0.00000  Uiso   1.00
C48    C     0.06388   0.71595   0.87478   0.00000  Uiso   1.00
C49    C     0.17718   0.71571   0.97047   0.00000  Uiso   1.00
C50    C     0.27348   0.65982   0.11694   0.00000  Uiso   1.00
C51    C     0.45860   0.58107   0.36489   0.00000  Uiso   1.00
C52    C     0.84503   0.68959   0.58573   0.00000  Uiso   1.00
C53    C     0.77431   0.66720   0.43839   0.00000  Uiso   1.00
C54    C     0.68638   0.58913   0.34152   0.00000  Uiso   1.00
C55    C     0.53166   0.46951   0.14067   0.00000  Uiso   1.00
C56    C     0.90905   0.84242   0.73195   0.00000  Uiso   1.00
C57    C     0.89211   0.94853   0.70751   0.00000  Uiso   1.00
C58    C     0.85804   0.99912   0.73371   0.00000  Uiso   1.00
C59    C     0.80271   0.11679   0.75989   0.00000  Uiso   1.00
C60    C     0.91584   0.67307   0.80022   0.00000  Uiso   1.00
C61    C     0.04735   0.66227   0.92363   0.00000  Uiso   1.00
C62    C     0.14351   0.60637   0.06999   0.00000  Uiso   1.00
C63    C     0.25693   0.60605   0.16589   0.00000  Uiso   1.00
C64    C     0.82850   0.63591   0.63458   0.00000  Uiso   1.00
C65    C     0.74064   0.55786   0.53791   0.00000  Uiso   1.00
C66    C     0.66981   0.53535   0.39046   0.00000  Uiso   1.00
C67    C     0.89252   0.78874   0.78081   0.00000  Uiso   1.00
C68    C     0.85845   0.83918   0.80704   0.00000  Uiso   1.00
C69    C     0.84148   0.94534   0.78265   0.00000  Uiso   1.00
H70    H     0.95913   0.81369   0.67223   0.00000  Uiso   1.00
H71    H     0.18993   0.75726   0.93261   0.00000  Uiso   1.00
H72    H     0.78712   0.70877   0.40061   0.00000  Uiso   1.00
H73    H     0.90491   0.99004   0.66970   0.00000  Uiso   1.00
H74    H     0.43850   0.67099   0.24281   0.00000  Uiso   1.00
H75    H     0.58912   0.56876   0.12102   0.00000  Uiso   1.00
H76    H     0.83750   0.16189   0.68844   0.00000  Uiso   1.00
H77    H     0.90297   0.63127   0.83826   0.00000  Uiso   1.00
H78    H     0.13069   0.56483   0.10777   0.00000  Uiso   1.00
H79    H     0.72788   0.51634   0.57575   0.00000  Uiso   1.00
H80    H     0.84567   0.79761   0.84484   0.00000  Uiso   1.00
H81    H     0.39042   0.51480   0.38497   0.00000  Uiso   1.00
H82    H     0.54103   0.41258   0.26317   0.00000  Uiso   1.00
H83    H     0.78942   0.00571   0.83060   0.00000  Uiso   1.00
O84    O     0.56527   0.55245   0.48815   0.00000  Uiso   1.00
O85    O     0.45089   0.41835   0.01639   0.00000  Uiso   1.00
O86    O     0.77677   0.19652   0.76085   0.00000  Uiso   1.00
N87    N     0.39595   0.64337   0.23930   0.00000  Uiso   1.00
N88    N     0.60184   0.54778   0.19050   0.00000  Uiso   1.00
N89    N     0.83402   0.10230   0.72095   0.00000  Uiso   1.00
N90    N     0.37007   0.55933   0.31579   0.00000  Uiso   1.00
N91    N     0.57596   0.46374   0.26700   0.00000  Uiso   1.00
N92    N     0.80815   0.01826   0.79745   0.00000  Uiso   1.00
C93    C     0.94627   0.72810   0.21028   0.00000  Uiso   1.00
C94    C     0.06388   0.78405   0.37478   0.00000  Uiso   1.00
C95    C     0.17718   0.78429   0.47047   0.00000  Uiso   1.00
C96    C     0.27348   0.84018   0.61694   0.00000  Uiso   1.00
C97    C     0.45860   0.91893   0.86489   0.00000  Uiso   1.00
C98    C     0.84503   0.81041   0.08573   0.00000  Uiso   1.00
C99    C     0.77431   0.83280   0.93839   0.00000  Uiso   1.00
C100   C     0.68638   0.91087   0.84152   0.00000  Uiso   1.00
C101   C     0.53166   0.03049   0.64067   0.00000  Uiso   1.00
C102   C     0.90905   0.65758   0.23195   0.00000  Uiso   1.00
C103   C     0.89211   0.55147   0.20751   0.00000  Uiso   1.00
C104   C     0.85804   0.50088   0.23371   0.00000  Uiso   1.00
C105   C     0.80271   0.38321   0.25989   0.00000  Uiso   1.00
C106   C     0.91584   0.82693   0.30022   0.00000  Uiso   1.00
C107   C     0.04735   0.83773   0.42363   0.00000  Uiso   1.00
C108   C     0.14351   0.89363   0.56999   0.00000  Uiso   1.00
C109   C     0.25693   0.89395   0.66589   0.00000  Uiso   1.00
C110   C     0.82850   0.86409   0.13458   0.00000  Uiso   1.00
C111   C     0.74064   0.94214   0.03791   0.00000  Uiso   1.00
C112   C     0.66981   0.96465   0.89046   0.00000  Uiso   1.00
C113   C     0.89252   0.71126   0.28081   0.00000  Uiso   1.00
C114   C     0.85845   0.66082   0.30704   0.00000  Uiso   1.00
C115   C     0.84148   0.55466   0.28265   0.00000  Uiso   1.00
H116   H     0.95913   0.68631   0.17223   0.00000  Uiso   1.00
H117   H     0.18993   0.74274   0.43261   0.00000  Uiso   1.00
H118   H     0.78712   0.79123   0.90061   0.00000  Uiso   1.00
H119   H     0.90491   0.50996   0.16970   0.00000  Uiso   1.00
H120   H     0.43850   0.82901   0.74281   0.00000  Uiso   1.00
H121   H     0.58912   0.93124   0.62102   0.00000  Uiso   1.00
H122   H     0.83750   0.33811   0.18844   0.00000  Uiso   1.00
H123   H     0.90297   0.86873   0.33826   0.00000  Uiso   1.00
H124   H     0.13069   0.93517   0.60777   0.00000  Uiso   1.00
H125   H     0.72788   0.98366   0.07575   0.00000  Uiso   1.00
H126   H     0.84567   0.70239   0.34484   0.00000  Uiso   1.00
H127   H     0.39042   0.98520   0.88497   0.00000  Uiso   1.00
H128   H     0.54103   0.08742   0.76317   0.00000  Uiso   1.00
H129   H     0.78942   0.49429   0.33060   0.00000  Uiso   1.00
O130   O     0.56527   0.94755   0.98815   0.00000  Uiso   1.00
O131   O     0.45089   0.08165   0.51639   0.00000  Uiso   1.00
O132   O     0.77677   0.30348   0.26085   0.00000  Uiso   1.00
N133   N     0.39595   0.85663   0.73930   0.00000  Uiso   1.00
N134   N     0.60184   0.95222   0.69050   0.00000  Uiso   1.00
N135   N     0.83402   0.39770   0.22095   0.00000  Uiso   1.00
N136   N     0.37007   0.94067   0.81579   0.00000  Uiso   1.00
N137   N     0.57596   0.03626   0.76700   0.00000  Uiso   1.00
N138   N     0.80815   0.48174   0.29745   0.00000  Uiso   1.00
C139   C     0.05373   0.22810   0.28972   0.00000  Uiso   1.00
C140   C     0.93612   0.28405   0.12522   0.00000  Uiso   1.00
C141   C     0.82282   0.28429   0.02953   0.00000  Uiso   1.00
C142   C     0.72652   0.34018   0.88306   0.00000  Uiso   1.00
C143   C     0.54140   0.41893   0.63511   0.00000  Uiso   1.00
C144   C     0.15497   0.31041   0.41427   0.00000  Uiso   1.00
C145   C     0.22569   0.33280   0.56161   0.00000  Uiso   1.00
C146   C     0.31362   0.41087   0.65848   0.00000  Uiso   1.00
C147   C     0.46834   0.53049   0.85933   0.00000  Uiso   1.00
C148   C     0.09095   0.15758   0.26805   0.00000  Uiso   1.00
C149   C     0.10789   0.05147   0.29249   0.00000  Uiso   1.00
C150   C     0.14196   0.00088   0.26629   0.00000  Uiso   1.00
C151   C     0.19729   0.88321   0.24011   0.00000  Uiso   1.00
C152   C     0.08416   0.32693   0.19978   0.00000  Uiso   1.00
C153   C     0.95265   0.33773   0.07637   0.00000  Uiso   1.00
C154   C     0.85649   0.39363   0.93001   0.00000  Uiso   1.00
C155   C     0.74307   0.39395   0.83411   0.00000  Uiso   1.00
C156   C     0.17150   0.36409   0.36542   0.00000  Uiso   1.00
C157   C     0.25936   0.44214   0.46209   0.00000  Uiso   1.00
C158   C     0.33019   0.46465   0.60954   0.00000  Uiso   1.00
C159   C     0.10748   0.21126   0.21919   0.00000  Uiso   1.00
C160   C     0.14155   0.16082   0.19296   0.00000  Uiso   1.00
C161   C     0.15852   0.05466   0.21735   0.00000  Uiso   1.00
H162   H     0.04087   0.18631   0.32777   0.00000  Uiso   1.00
H163   H     0.81007   0.24274   0.06739   0.00000  Uiso   1.00
H164   H     0.21288   0.29123   0.59939   0.00000  Uiso   1.00
H165   H     0.09509   0.00996   0.33030   0.00000  Uiso   1.00
H166   H     0.56150   0.32901   0.75719   0.00000  Uiso   1.00
H167   H     0.41088   0.43124   0.87898   0.00000  Uiso   1.00
H168   H     0.16250   0.83811   0.31156   0.00000  Uiso   1.00
H169   H     0.09703   0.36873   0.16174   0.00000  Uiso   1.00
H170   H     0.86931   0.43517   0.89223   0.00000  Uiso   1.00
H171   H     0.27212   0.48366   0.42425   0.00000  Uiso   1.00
H172   H     0.15433   0.20239   0.15516   0.00000  Uiso   1.00
H173   H     0.60958   0.48520   0.61503   0.00000  Uiso   1.00
H174   H     0.45897   0.58742   0.73683   0.00000  Uiso   1.00
H175   H     0.21058   0.99429   0.16940   0.00000  Uiso   1.00
O176   O     0.43473   0.44755   0.51185   0.00000  Uiso   1.00
O177   O     0.54911   0.58165   0.98361   0.00000  Uiso   1.00
O178   O     0.22323   0.80348   0.23915   0.00000  Uiso   1.00
N179   N     0.60405   0.35663   0.76070   0.00000  Uiso   1.00
N180   N     0.39816   0.45222   0.80950   0.00000  Uiso   1.00
N181   N     0.16598   0.89770   0.27905   0.00000  Uiso   1.00
N182   N     0.62993   0.44067   0.68421   0.00000  Uiso   1.00
N183   N     0.42404   0.53626   0.73300   0.00000  Uiso   1.00
N184   N     0.19185   0.98174   0.20255   0.00000  Uiso   1.00
