data_job_00467
_audit_creation_date              2018-12-19
_audit_creation_method            'Materials Studio'
_symmetry_space_group_name_H-M    'P1'
_symmetry_Int_Tables_number       1
_symmetry_cell_setting            triclinic
loop_
_symmetry_equiv_pos_as_xyz
  x,y,z
_cell_length_a                    20.4516
_cell_length_b                    41.9542
_cell_length_c                    11.6924
_cell_angle_alpha                 90.0000
_cell_angle_beta                  131.7430
_cell_angle_gamma                 90.0000
loop_
_atom_site_label
_atom_site_type_symbol
_atom_site_fract_x
_atom_site_fract_y
_atom_site_fract_z
_atom_site_U_iso_or_equiv
_atom_site_adp_type
_atom_site_occupancy
C1     C     0.29356   0.40753   0.65327   0.00000  Uiso   1.00
C2     C     0.23620   0.42349   0.67658   0.00000  Uiso   1.00
C3     C     0.26101   0.43041   0.81694   0.00000  Uiso   1.00
C4     C     0.19902   0.44506   0.81393   0.00000  Uiso   1.00
C5     C     0.12267   0.46871   0.87119   0.00000  Uiso   1.00
C6     C     0.24304   0.37822   0.55436   0.00000  Uiso   1.00
C7     C     0.27362   0.34707   0.59196   0.00000  Uiso   1.00
C8     C     0.21739   0.32362   0.48605   0.00000  Uiso   1.00
C9     C     0.15169   0.27698   0.35352   0.00000  Uiso   1.00
C10    C     0.29575   0.43028   0.55415   0.00000  Uiso   1.00
C11    C     0.37066   0.44289   0.59154   0.00000  Uiso   1.00
C12    C     0.35881   0.46326   0.48543   0.00000  Uiso   1.00
C13    C     0.37496   0.49744   0.35257   0.00000  Uiso   1.00
C14    C     0.13933   0.42127   0.39832   0.00000  Uiso   1.00
C15    C     0.15242   0.43095   0.53810   0.00000  Uiso   1.00
C16    C     0.09037   0.44561   0.53487   0.00000  Uiso   1.00
C17    C     0.11509   0.45254   0.67520   0.00000  Uiso   1.00
C18    C     0.15927   0.38568   0.41589   0.00000  Uiso   1.00
C19    C     0.10298   0.36227   0.30989   0.00000  Uiso   1.00
C20    C     0.13346   0.33110   0.34732   0.00000  Uiso   1.00
C21    C     0.21198   0.43774   0.41567   0.00000  Uiso   1.00
C22    C     0.20001   0.45809   0.30947   0.00000  Uiso   1.00
C23    C     0.27488   0.47073   0.34670   0.00000  Uiso   1.00
H24    H     0.35879   0.40172   0.76108   0.00000  Uiso   1.00
H25    H     0.32585   0.42463   0.92408   0.00000  Uiso   1.00
H26    H     0.33846   0.34131   0.69913   0.00000  Uiso   1.00
H27    H     0.43548   0.43711   0.69871   0.00000  Uiso   1.00
H28    H     0.25238   0.45331   0.04374   0.00000  Uiso   1.00
H29    H     0.27898   0.27762   0.56939   0.00000  Uiso   1.00
H30    H     0.48356   0.47964   0.56851   0.00000  Uiso   1.00
H31    H     0.07410   0.42707   0.29050   0.00000  Uiso   1.00
H32    H     0.02554   0.45138   0.42769   0.00000  Uiso   1.00
H33    H     0.03815   0.36806   0.20274   0.00000  Uiso   1.00
H34    H     0.13517   0.46386   0.20232   0.00000  Uiso   1.00
H35    H     0.00864   0.47502   0.64085   0.00000  Uiso   1.00
H36    H     0.03524   0.29934   0.16649   0.00000  Uiso   1.00
H37    H     0.23982   0.50135   0.16562   0.00000  Uiso   1.00
O38    O     0.10369   0.47968   0.94103   0.00000  Uiso   1.00
O39    O     0.13860   0.24920   0.31869   0.00000  Uiso   1.00
O40    O     0.40701   0.51423   0.31755   0.00000  Uiso   1.00
N41    N     0.20169   0.45509   0.93009   0.00000  Uiso   1.00
N42    N     0.22655   0.29083   0.48661   0.00000  Uiso   1.00
N43    N     0.41782   0.47969   0.48577   0.00000  Uiso   1.00
N44    N     0.07053   0.46677   0.71330   0.00000  Uiso   1.00
N45    N     0.09539   0.30252   0.26982   0.00000  Uiso   1.00
N46    N     0.28666   0.49138   0.26898   0.00000  Uiso   1.00
C47    C     0.79356   0.90753   0.65327   0.00000  Uiso   1.00
C48    C     0.73620   0.92349   0.67658   0.00000  Uiso   1.00
C49    C     0.76101   0.93041   0.81694   0.00000  Uiso   1.00
C50    C     0.69902   0.94506   0.81393   0.00000  Uiso   1.00
C51    C     0.62267   0.96871   0.87119   0.00000  Uiso   1.00
C52    C     0.74304   0.87822   0.55436   0.00000  Uiso   1.00
C53    C     0.77362   0.84707   0.59196   0.00000  Uiso   1.00
C54    C     0.71739   0.82362   0.48605   0.00000  Uiso   1.00
C55    C     0.65169   0.77698   0.35352   0.00000  Uiso   1.00
C56    C     0.79575   0.93028   0.55415   0.00000  Uiso   1.00
C57    C     0.87066   0.94289   0.59154   0.00000  Uiso   1.00
C58    C     0.85881   0.96326   0.48543   0.00000  Uiso   1.00
C59    C     0.87496   0.99744   0.35257   0.00000  Uiso   1.00
C60    C     0.63933   0.92127   0.39832   0.00000  Uiso   1.00
C61    C     0.65242   0.93095   0.53810   0.00000  Uiso   1.00
C62    C     0.59037   0.94561   0.53487   0.00000  Uiso   1.00
C63    C     0.61509   0.95254   0.67520   0.00000  Uiso   1.00
C64    C     0.65927   0.88568   0.41589   0.00000  Uiso   1.00
C65    C     0.60298   0.86227   0.30989   0.00000  Uiso   1.00
C66    C     0.63346   0.83110   0.34732   0.00000  Uiso   1.00
C67    C     0.71198   0.93774   0.41567   0.00000  Uiso   1.00
C68    C     0.70001   0.95809   0.30947   0.00000  Uiso   1.00
C69    C     0.77488   0.97073   0.34670   0.00000  Uiso   1.00
H70    H     0.85879   0.90172   0.76108   0.00000  Uiso   1.00
H71    H     0.82585   0.92463   0.92408   0.00000  Uiso   1.00
H72    H     0.83846   0.84131   0.69913   0.00000  Uiso   1.00
H73    H     0.93548   0.93711   0.69871   0.00000  Uiso   1.00
H74    H     0.75238   0.95331   0.04374   0.00000  Uiso   1.00
H75    H     0.77898   0.77762   0.56939   0.00000  Uiso   1.00
H76    H     0.98356   0.97964   0.56851   0.00000  Uiso   1.00
H77    H     0.57410   0.92707   0.29050   0.00000  Uiso   1.00
H78    H     0.52554   0.95138   0.42769   0.00000  Uiso   1.00
H79    H     0.53815   0.86806   0.20274   0.00000  Uiso   1.00
H80    H     0.63517   0.96386   0.20232   0.00000  Uiso   1.00
H81    H     0.50864   0.97502   0.64085   0.00000  Uiso   1.00
H82    H     0.53524   0.79934   0.16649   0.00000  Uiso   1.00
H83    H     0.73982   0.00135   0.16562   0.00000  Uiso   1.00
O84    O     0.60369   0.97968   0.94103   0.00000  Uiso   1.00
O85    O     0.63860   0.74920   0.31869   0.00000  Uiso   1.00
O86    O     0.90701   0.01423   0.31755   0.00000  Uiso   1.00
N87    N     0.70169   0.95509   0.93009   0.00000  Uiso   1.00
N88    N     0.72655   0.79083   0.48661   0.00000  Uiso   1.00
N89    N     0.91782   0.97969   0.48577   0.00000  Uiso   1.00
N90    N     0.57053   0.96677   0.71330   0.00000  Uiso   1.00
N91    N     0.59539   0.80252   0.26982   0.00000  Uiso   1.00
N92    N     0.78666   0.99138   0.26898   0.00000  Uiso   1.00
C93    C     0.70644   0.40753   0.84673   0.00000  Uiso   1.00
C94    C     0.76380   0.42349   0.82342   0.00000  Uiso   1.00
C95    C     0.73899   0.43041   0.68306   0.00000  Uiso   1.00
C96    C     0.80098   0.44506   0.68607   0.00000  Uiso   1.00
C97    C     0.87733   0.46871   0.62881   0.00000  Uiso   1.00
C98    C     0.75696   0.37822   0.94564   0.00000  Uiso   1.00
C99    C     0.72638   0.34707   0.90804   0.00000  Uiso   1.00
C100   C     0.78261   0.32362   0.01395   0.00000  Uiso   1.00
C101   C     0.84831   0.27698   0.14648   0.00000  Uiso   1.00
C102   C     0.70425   0.43028   0.94585   0.00000  Uiso   1.00
C103   C     0.62934   0.44289   0.90846   0.00000  Uiso   1.00
C104   C     0.64119   0.46326   0.01457   0.00000  Uiso   1.00
C105   C     0.62504   0.49744   0.14743   0.00000  Uiso   1.00
C106   C     0.86067   0.42127   0.10168   0.00000  Uiso   1.00
C107   C     0.84758   0.43095   0.96190   0.00000  Uiso   1.00
C108   C     0.90963   0.44561   0.96513   0.00000  Uiso   1.00
C109   C     0.88491   0.45254   0.82480   0.00000  Uiso   1.00
C110   C     0.84073   0.38568   0.08411   0.00000  Uiso   1.00
C111   C     0.89702   0.36227   0.19011   0.00000  Uiso   1.00
C112   C     0.86654   0.33110   0.15268   0.00000  Uiso   1.00
C113   C     0.78802   0.43774   0.08433   0.00000  Uiso   1.00
C114   C     0.79999   0.45809   0.19053   0.00000  Uiso   1.00
C115   C     0.72512   0.47073   0.15330   0.00000  Uiso   1.00
H116   H     0.64121   0.40172   0.73892   0.00000  Uiso   1.00
H117   H     0.67415   0.42463   0.57592   0.00000  Uiso   1.00
H118   H     0.66154   0.34131   0.80087   0.00000  Uiso   1.00
H119   H     0.56452   0.43711   0.80129   0.00000  Uiso   1.00
H120   H     0.74762   0.45331   0.45626   0.00000  Uiso   1.00
H121   H     0.72102   0.27762   0.93061   0.00000  Uiso   1.00
H122   H     0.51644   0.47964   0.93149   0.00000  Uiso   1.00
H123   H     0.92590   0.42707   0.20950   0.00000  Uiso   1.00
H124   H     0.97446   0.45138   0.07231   0.00000  Uiso   1.00
H125   H     0.96185   0.36806   0.29726   0.00000  Uiso   1.00
H126   H     0.86483   0.46386   0.29768   0.00000  Uiso   1.00
H127   H     0.99136   0.47502   0.85915   0.00000  Uiso   1.00
H128   H     0.96476   0.29934   0.33351   0.00000  Uiso   1.00
H129   H     0.76018   0.50135   0.33438   0.00000  Uiso   1.00
O130   O     0.89631   0.47968   0.55897   0.00000  Uiso   1.00
O131   O     0.86140   0.24920   0.18131   0.00000  Uiso   1.00
O132   O     0.59299   0.51423   0.18245   0.00000  Uiso   1.00
N133   N     0.79831   0.45509   0.56991   0.00000  Uiso   1.00
N134   N     0.77345   0.29083   0.01339   0.00000  Uiso   1.00
N135   N     0.58218   0.47969   0.01423   0.00000  Uiso   1.00
N136   N     0.92947   0.46677   0.78670   0.00000  Uiso   1.00
N137   N     0.90461   0.30252   0.23018   0.00000  Uiso   1.00
N138   N     0.71334   0.49138   0.23102   0.00000  Uiso   1.00
C139   C     0.20644   0.90753   0.84673   0.00000  Uiso   1.00
C140   C     0.26380   0.92349   0.82342   0.00000  Uiso   1.00
C141   C     0.23899   0.93041   0.68306   0.00000  Uiso   1.00
C142   C     0.30098   0.94506   0.68607   0.00000  Uiso   1.00
C143   C     0.37733   0.96871   0.62881   0.00000  Uiso   1.00
C144   C     0.25696   0.87822   0.94564   0.00000  Uiso   1.00
C145   C     0.22638   0.84707   0.90804   0.00000  Uiso   1.00
C146   C     0.28261   0.82362   0.01395   0.00000  Uiso   1.00
C147   C     0.34831   0.77698   0.14648   0.00000  Uiso   1.00
C148   C     0.20425   0.93028   0.94585   0.00000  Uiso   1.00
C149   C     0.12934   0.94289   0.90846   0.00000  Uiso   1.00
C150   C     0.14119   0.96326   0.01457   0.00000  Uiso   1.00
C151   C     0.12504   0.99744   0.14743   0.00000  Uiso   1.00
C152   C     0.36067   0.92127   0.10168   0.00000  Uiso   1.00
C153   C     0.34758   0.93095   0.96190   0.00000  Uiso   1.00
C154   C     0.40963   0.94561   0.96513   0.00000  Uiso   1.00
C155   C     0.38491   0.95254   0.82480   0.00000  Uiso   1.00
C156   C     0.34073   0.88568   0.08411   0.00000  Uiso   1.00
C157   C     0.39702   0.86227   0.19011   0.00000  Uiso   1.00
C158   C     0.36654   0.83110   0.15268   0.00000  Uiso   1.00
C159   C     0.28802   0.93774   0.08433   0.00000  Uiso   1.00
C160   C     0.29999   0.95809   0.19053   0.00000  Uiso   1.00
C161   C     0.22512   0.97073   0.15330   0.00000  Uiso   1.00
H162   H     0.14121   0.90172   0.73892   0.00000  Uiso   1.00
H163   H     0.17415   0.92463   0.57592   0.00000  Uiso   1.00
H164   H     0.16154   0.84131   0.80087   0.00000  Uiso   1.00
H165   H     0.06452   0.93711   0.80129   0.00000  Uiso   1.00
H166   H     0.24762   0.95331   0.45626   0.00000  Uiso   1.00
H167   H     0.22102   0.77762   0.93061   0.00000  Uiso   1.00
H168   H     0.01644   0.97964   0.93149   0.00000  Uiso   1.00
H169   H     0.42590   0.92707   0.20950   0.00000  Uiso   1.00
H170   H     0.47446   0.95138   0.07231   0.00000  Uiso   1.00
H171   H     0.46185   0.86806   0.29726   0.00000  Uiso   1.00
H172   H     0.36483   0.96386   0.29768   0.00000  Uiso   1.00
H173   H     0.49136   0.97502   0.85915   0.00000  Uiso   1.00
H174   H     0.46476   0.79934   0.33351   0.00000  Uiso   1.00
H175   H     0.26018   0.00135   0.33438   0.00000  Uiso   1.00
O176   O     0.39631   0.97968   0.55897   0.00000  Uiso   1.00
O177   O     0.36140   0.74920   0.18131   0.00000  Uiso   1.00
O178   O     0.09299   0.01423   0.18245   0.00000  Uiso   1.00
N179   N     0.29831   0.95509   0.56991   0.00000  Uiso   1.00
N180   N     0.27345   0.79083   0.01339   0.00000  Uiso   1.00
N181   N     0.08218   0.97969   0.01423   0.00000  Uiso   1.00
N182   N     0.42947   0.96677   0.78670   0.00000  Uiso   1.00
N183   N     0.40461   0.80252   0.23018   0.00000  Uiso   1.00
N184   N     0.21334   0.99138   0.23102   0.00000  Uiso   1.00
C185   C     0.70644   0.59247   0.34673   0.00000  Uiso   1.00
C186   C     0.76380   0.57651   0.32342   0.00000  Uiso   1.00
C187   C     0.73899   0.56959   0.18306   0.00000  Uiso   1.00
C188   C     0.80098   0.55494   0.18607   0.00000  Uiso   1.00
C189   C     0.87733   0.53129   0.12881   0.00000  Uiso   1.00
C190   C     0.75696   0.62178   0.44564   0.00000  Uiso   1.00
C191   C     0.72638   0.65293   0.40804   0.00000  Uiso   1.00
C192   C     0.78261   0.67638   0.51395   0.00000  Uiso   1.00
C193   C     0.84831   0.72302   0.64648   0.00000  Uiso   1.00
C194   C     0.70425   0.56972   0.44585   0.00000  Uiso   1.00
C195   C     0.62934   0.55711   0.40846   0.00000  Uiso   1.00
C196   C     0.64119   0.53674   0.51457   0.00000  Uiso   1.00
C197   C     0.62504   0.50256   0.64743   0.00000  Uiso   1.00
C198   C     0.86067   0.57873   0.60168   0.00000  Uiso   1.00
C199   C     0.84758   0.56905   0.46190   0.00000  Uiso   1.00
C200   C     0.90963   0.55439   0.46513   0.00000  Uiso   1.00
C201   C     0.88491   0.54746   0.32480   0.00000  Uiso   1.00
C202   C     0.84073   0.61432   0.58411   0.00000  Uiso   1.00
C203   C     0.89702   0.63773   0.69011   0.00000  Uiso   1.00
C204   C     0.86654   0.66890   0.65268   0.00000  Uiso   1.00
C205   C     0.78802   0.56226   0.58433   0.00000  Uiso   1.00
C206   C     0.79999   0.54191   0.69053   0.00000  Uiso   1.00
C207   C     0.72512   0.52927   0.65330   0.00000  Uiso   1.00
H208   H     0.64121   0.59828   0.23892   0.00000  Uiso   1.00
H209   H     0.67415   0.57537   0.07592   0.00000  Uiso   1.00
H210   H     0.66154   0.65869   0.30087   0.00000  Uiso   1.00
H211   H     0.56452   0.56289   0.30129   0.00000  Uiso   1.00
H212   H     0.74762   0.54669   0.95626   0.00000  Uiso   1.00
H213   H     0.72102   0.72238   0.43061   0.00000  Uiso   1.00
H214   H     0.51644   0.52036   0.43149   0.00000  Uiso   1.00
H215   H     0.92590   0.57293   0.70950   0.00000  Uiso   1.00
H216   H     0.97446   0.54862   0.57231   0.00000  Uiso   1.00
H217   H     0.96185   0.63194   0.79726   0.00000  Uiso   1.00
H218   H     0.86483   0.53614   0.79768   0.00000  Uiso   1.00
H219   H     0.99136   0.52498   0.35915   0.00000  Uiso   1.00
H220   H     0.96476   0.70066   0.83351   0.00000  Uiso   1.00
H221   H     0.76018   0.49865   0.83438   0.00000  Uiso   1.00
O222   O     0.89631   0.52032   0.05897   0.00000  Uiso   1.00
O223   O     0.86140   0.75080   0.68131   0.00000  Uiso   1.00
O224   O     0.59299   0.48577   0.68245   0.00000  Uiso   1.00
N225   N     0.79831   0.54491   0.06991   0.00000  Uiso   1.00
N226   N     0.77345   0.70917   0.51339   0.00000  Uiso   1.00
N227   N     0.58218   0.52031   0.51423   0.00000  Uiso   1.00
N228   N     0.92947   0.53323   0.28670   0.00000  Uiso   1.00
N229   N     0.90461   0.69748   0.73018   0.00000  Uiso   1.00
N230   N     0.71334   0.50862   0.73102   0.00000  Uiso   1.00
C231   C     0.20644   0.09247   0.34673   0.00000  Uiso   1.00
C232   C     0.26380   0.07651   0.32342   0.00000  Uiso   1.00
C233   C     0.23899   0.06959   0.18306   0.00000  Uiso   1.00
C234   C     0.30098   0.05494   0.18607   0.00000  Uiso   1.00
C235   C     0.37733   0.03129   0.12881   0.00000  Uiso   1.00
C236   C     0.25696   0.12178   0.44564   0.00000  Uiso   1.00
C237   C     0.22638   0.15293   0.40804   0.00000  Uiso   1.00
C238   C     0.28261   0.17638   0.51395   0.00000  Uiso   1.00
C239   C     0.34831   0.22302   0.64648   0.00000  Uiso   1.00
C240   C     0.20425   0.06972   0.44585   0.00000  Uiso   1.00
C241   C     0.12934   0.05711   0.40846   0.00000  Uiso   1.00
C242   C     0.14119   0.03674   0.51457   0.00000  Uiso   1.00
C243   C     0.12504   0.00256   0.64743   0.00000  Uiso   1.00
C244   C     0.36067   0.07873   0.60168   0.00000  Uiso   1.00
C245   C     0.34758   0.06905   0.46190   0.00000  Uiso   1.00
C246   C     0.40963   0.05439   0.46513   0.00000  Uiso   1.00
C247   C     0.38491   0.04746   0.32480   0.00000  Uiso   1.00
C248   C     0.34073   0.11432   0.58411   0.00000  Uiso   1.00
C249   C     0.39702   0.13773   0.69011   0.00000  Uiso   1.00
C250   C     0.36654   0.16890   0.65268   0.00000  Uiso   1.00
C251   C     0.28802   0.06226   0.58433   0.00000  Uiso   1.00
C252   C     0.29999   0.04191   0.69053   0.00000  Uiso   1.00
C253   C     0.22512   0.02927   0.65330   0.00000  Uiso   1.00
H254   H     0.14121   0.09828   0.23892   0.00000  Uiso   1.00
H255   H     0.17415   0.07537   0.07592   0.00000  Uiso   1.00
H256   H     0.16154   0.15869   0.30087   0.00000  Uiso   1.00
H257   H     0.06452   0.06289   0.30129   0.00000  Uiso   1.00
H258   H     0.24762   0.04669   0.95626   0.00000  Uiso   1.00
H259   H     0.22102   0.22238   0.43061   0.00000  Uiso   1.00
H260   H     0.01644   0.02036   0.43149   0.00000  Uiso   1.00
H261   H     0.42590   0.07293   0.70950   0.00000  Uiso   1.00
H262   H     0.47446   0.04862   0.57231   0.00000  Uiso   1.00
H263   H     0.46185   0.13194   0.79726   0.00000  Uiso   1.00
H264   H     0.36483   0.03614   0.79768   0.00000  Uiso   1.00
H265   H     0.49136   0.02498   0.35915   0.00000  Uiso   1.00
H266   H     0.46476   0.20066   0.83351   0.00000  Uiso   1.00
H267   H     0.26018   0.99865   0.83438   0.00000  Uiso   1.00
O268   O     0.39631   0.02032   0.05897   0.00000  Uiso   1.00
O269   O     0.36140   0.25080   0.68131   0.00000  Uiso   1.00
O270   O     0.09299   0.98577   0.68245   0.00000  Uiso   1.00
N271   N     0.29831   0.04491   0.06991   0.00000  Uiso   1.00
N272   N     0.27345   0.20917   0.51339   0.00000  Uiso   1.00
N273   N     0.08218   0.02031   0.51423   0.00000  Uiso   1.00
N274   N     0.42947   0.03323   0.28670   0.00000  Uiso   1.00
N275   N     0.40461   0.19748   0.73018   0.00000  Uiso   1.00
N276   N     0.21334   0.00862   0.73102   0.00000  Uiso   1.00
C277   C     0.29356   0.59247   0.15327   0.00000  Uiso   1.00
C278   C     0.23620   0.57651   0.17658   0.00000  Uiso   1.00
C279   C     0.26101   0.56959   0.31694   0.00000  Uiso   1.00
C280   C     0.19902   0.55494   0.31393   0.00000  Uiso   1.00
C281   C     0.12267   0.53129   0.37119   0.00000  Uiso   1.00
C282   C     0.24304   0.62178   0.05436   0.00000  Uiso   1.00
C283   C     0.27362   0.65293   0.09196   0.00000  Uiso   1.00
C284   C     0.21739   0.67638   0.98605   0.00000  Uiso   1.00
C285   C     0.15169   0.72302   0.85352   0.00000  Uiso   1.00
C286   C     0.29575   0.56972   0.05415   0.00000  Uiso   1.00
C287   C     0.37066   0.55711   0.09154   0.00000  Uiso   1.00
C288   C     0.35881   0.53674   0.98543   0.00000  Uiso   1.00
C289   C     0.37496   0.50256   0.85257   0.00000  Uiso   1.00
C290   C     0.13933   0.57873   0.89832   0.00000  Uiso   1.00
C291   C     0.15242   0.56905   0.03810   0.00000  Uiso   1.00
C292   C     0.09037   0.55439   0.03487   0.00000  Uiso   1.00
C293   C     0.11509   0.54746   0.17520   0.00000  Uiso   1.00
C294   C     0.15927   0.61432   0.91589   0.00000  Uiso   1.00
C295   C     0.10298   0.63773   0.80989   0.00000  Uiso   1.00
C296   C     0.13346   0.66890   0.84732   0.00000  Uiso   1.00
C297   C     0.21198   0.56226   0.91567   0.00000  Uiso   1.00
C298   C     0.20001   0.54191   0.80947   0.00000  Uiso   1.00
C299   C     0.27488   0.52927   0.84670   0.00000  Uiso   1.00
H300   H     0.35879   0.59828   0.26108   0.00000  Uiso   1.00
H301   H     0.32585   0.57537   0.42408   0.00000  Uiso   1.00
H302   H     0.33846   0.65869   0.19913   0.00000  Uiso   1.00
H303   H     0.43548   0.56289   0.19871   0.00000  Uiso   1.00
H304   H     0.25238   0.54669   0.54374   0.00000  Uiso   1.00
H305   H     0.27898   0.72238   0.06939   0.00000  Uiso   1.00
H306   H     0.48356   0.52036   0.06851   0.00000  Uiso   1.00
H307   H     0.07410   0.57293   0.79050   0.00000  Uiso   1.00
H308   H     0.02554   0.54862   0.92769   0.00000  Uiso   1.00
H309   H     0.03815   0.63194   0.70274   0.00000  Uiso   1.00
H310   H     0.13517   0.53614   0.70232   0.00000  Uiso   1.00
H311   H     0.00864   0.52498   0.14085   0.00000  Uiso   1.00
H312   H     0.03524   0.70066   0.66649   0.00000  Uiso   1.00
H313   H     0.23982   0.49865   0.66562   0.00000  Uiso   1.00
O314   O     0.10369   0.52032   0.44103   0.00000  Uiso   1.00
O315   O     0.13860   0.75080   0.81869   0.00000  Uiso   1.00
O316   O     0.40701   0.48577   0.81755   0.00000  Uiso   1.00
N317   N     0.20169   0.54491   0.43009   0.00000  Uiso   1.00
N318   N     0.22655   0.70917   0.98661   0.00000  Uiso   1.00
N319   N     0.41782   0.52031   0.98577   0.00000  Uiso   1.00
N320   N     0.07053   0.53323   0.21330   0.00000  Uiso   1.00
N321   N     0.09539   0.69748   0.76982   0.00000  Uiso   1.00
N322   N     0.28666   0.50862   0.76898   0.00000  Uiso   1.00
C323   C     0.79356   0.09247   0.15327   0.00000  Uiso   1.00
C324   C     0.73620   0.07651   0.17658   0.00000  Uiso   1.00
C325   C     0.76101   0.06959   0.31694   0.00000  Uiso   1.00
C326   C     0.69902   0.05494   0.31393   0.00000  Uiso   1.00
C327   C     0.62267   0.03129   0.37119   0.00000  Uiso   1.00
C328   C     0.74304   0.12178   0.05436   0.00000  Uiso   1.00
C329   C     0.77362   0.15293   0.09196   0.00000  Uiso   1.00
C330   C     0.71739   0.17638   0.98605   0.00000  Uiso   1.00
C331   C     0.65169   0.22302   0.85352   0.00000  Uiso   1.00
C332   C     0.79575   0.06972   0.05415   0.00000  Uiso   1.00
C333   C     0.87066   0.05711   0.09154   0.00000  Uiso   1.00
C334   C     0.85881   0.03674   0.98543   0.00000  Uiso   1.00
C335   C     0.87496   0.00256   0.85257   0.00000  Uiso   1.00
C336   C     0.63933   0.07873   0.89832   0.00000  Uiso   1.00
C337   C     0.65242   0.06905   0.03810   0.00000  Uiso   1.00
C338   C     0.59037   0.05439   0.03487   0.00000  Uiso   1.00
C339   C     0.61509   0.04746   0.17520   0.00000  Uiso   1.00
C340   C     0.65927   0.11432   0.91589   0.00000  Uiso   1.00
C341   C     0.60298   0.13773   0.80989   0.00000  Uiso   1.00
C342   C     0.63346   0.16890   0.84732   0.00000  Uiso   1.00
C343   C     0.71198   0.06226   0.91567   0.00000  Uiso   1.00
C344   C     0.70001   0.04191   0.80947   0.00000  Uiso   1.00
C345   C     0.77488   0.02927   0.84670   0.00000  Uiso   1.00
H346   H     0.85879   0.09828   0.26108   0.00000  Uiso   1.00
H347   H     0.82585   0.07537   0.42408   0.00000  Uiso   1.00
H348   H     0.83846   0.15869   0.19913   0.00000  Uiso   1.00
H349   H     0.93548   0.06289   0.19871   0.00000  Uiso   1.00
H350   H     0.75238   0.04669   0.54374   0.00000  Uiso   1.00
H351   H     0.77898   0.22238   0.06939   0.00000  Uiso   1.00
H352   H     0.98356   0.02036   0.06851   0.00000  Uiso   1.00
H353   H     0.57410   0.07293   0.79050   0.00000  Uiso   1.00
H354   H     0.52554   0.04862   0.92769   0.00000  Uiso   1.00
H355   H     0.53815   0.13194   0.70274   0.00000  Uiso   1.00
H356   H     0.63517   0.03614   0.70232   0.00000  Uiso   1.00
H357   H     0.50864   0.02498   0.14085   0.00000  Uiso   1.00
H358   H     0.53524   0.20066   0.66649   0.00000  Uiso   1.00
H359   H     0.73982   0.99865   0.66562   0.00000  Uiso   1.00
O360   O     0.60369   0.02032   0.44103   0.00000  Uiso   1.00
O361   O     0.63860   0.25080   0.81869   0.00000  Uiso   1.00
O362   O     0.90701   0.98577   0.81755   0.00000  Uiso   1.00
N363   N     0.70169   0.04491   0.43009   0.00000  Uiso   1.00
N364   N     0.72655   0.20917   0.98661   0.00000  Uiso   1.00
N365   N     0.91782   0.02031   0.98577   0.00000  Uiso   1.00
N366   N     0.57053   0.03323   0.21330   0.00000  Uiso   1.00
N367   N     0.59539   0.19748   0.76982   0.00000  Uiso   1.00
N368   N     0.78666   0.00862   0.76898   0.00000  Uiso   1.00
