data_job_03000
_audit_creation_date              2018-12-19
_audit_creation_method            'Materials Studio'
_symmetry_space_group_name_H-M    'P1'
_symmetry_Int_Tables_number       1
_symmetry_cell_setting            triclinic
loop_
_symmetry_equiv_pos_as_xyz
  x,y,z
_cell_length_a                    24.5315
_cell_length_b                    23.3904
_cell_length_c                    11.2881
_cell_angle_alpha                 90.0000
_cell_angle_beta                  67.1260
_cell_angle_gamma                 90.0000
loop_
_atom_site_label
_atom_site_type_symbol
_atom_site_fract_x
_atom_site_fract_y
_atom_site_fract_z
_atom_site_U_iso_or_equiv
_atom_site_adp_type
_atom_site_occupancy
C1     C     0.23397   0.59933   0.42164   0.00000  Uiso   1.00
C2     C     0.23612   0.63052   0.53838   0.00000  Uiso   1.00
C3     C     0.26575   0.68136   0.53559   0.00000  Uiso   1.00
C4     C     0.26236   0.70299   0.65279   0.00000  Uiso   1.00
C5     C     0.27057   0.75570   0.81644   0.00000  Uiso   1.00
C6     C     0.25698   0.53913   0.42602   0.00000  Uiso   1.00
C7     C     0.30413   0.51314   0.32874   0.00000  Uiso   1.00
C8     C     0.31828   0.45783   0.35135   0.00000  Uiso   1.00
C9     C     0.35884   0.36864   0.34051   0.00000  Uiso   1.00
C10    C     0.16859   0.59271   0.44657   0.00000  Uiso   1.00
C11    C     0.14142   0.61176   0.36656   0.00000  Uiso   1.00
C12    C     0.08116   0.60156   0.40646   0.00000  Uiso   1.00
C13    C     0.98448   0.59556   0.42754   0.00000  Uiso   1.00
C14    C     0.17525   0.54733   0.63476   0.00000  Uiso   1.00
C15    C     0.20423   0.60227   0.65414   0.00000  Uiso   1.00
C16    C     0.20078   0.62383   0.77138   0.00000  Uiso   1.00
C17    C     0.23040   0.67470   0.76876   0.00000  Uiso   1.00
C18    C     0.22508   0.51089   0.54177   0.00000  Uiso   1.00
C19    C     0.23916   0.45561   0.56452   0.00000  Uiso   1.00
C20    C     0.28633   0.42954   0.46731   0.00000  Uiso   1.00
C21    C     0.13669   0.56447   0.56233   0.00000  Uiso   1.00
C22    C     0.07645   0.55423   0.60236   0.00000  Uiso   1.00
C23    C     0.04921   0.57326   0.52243   0.00000  Uiso   1.00
H24    H     0.25881   0.62132   0.33152   0.00000  Uiso   1.00
H25    H     0.29044   0.70320   0.44598   0.00000  Uiso   1.00
H26    H     0.32880   0.53500   0.23916   0.00000  Uiso   1.00
H27    H     0.16612   0.63361   0.27699   0.00000  Uiso   1.00
H28    H     0.31146   0.78152   0.62394   0.00000  Uiso   1.00
H29    H     0.39234   0.42685   0.18782   0.00000  Uiso   1.00
H30    H     0.04929   0.63479   0.26758   0.00000  Uiso   1.00
H31    H     0.15042   0.52534   0.72488   0.00000  Uiso   1.00
H32    H     0.17610   0.60197   0.86094   0.00000  Uiso   1.00
H33    H     0.21447   0.43376   0.65411   0.00000  Uiso   1.00
H34    H     0.05179   0.53238   0.69194   0.00000  Uiso   1.00
H35    H     0.21866   0.69936   0.96073   0.00000  Uiso   1.00
H36    H     0.29954   0.34468   0.52461   0.00000  Uiso   1.00
H37    H     0.95649   0.55262   0.60437   0.00000  Uiso   1.00
O38    O     0.28392   0.79257   0.87473   0.00000  Uiso   1.00
O39    O     0.39003   0.32725   0.30256   0.00000  Uiso   1.00
O40    O     0.93996   0.60006   0.40720   0.00000  Uiso   1.00
N41    N     0.28608   0.75168   0.68453   0.00000  Uiso   1.00
N42    N     0.36171   0.42008   0.27680   0.00000  Uiso   1.00
N43    N     0.04099   0.61448   0.35135   0.00000  Uiso   1.00
N44    N     0.23615   0.70746   0.86576   0.00000  Uiso   1.00
N45    N     0.31177   0.37587   0.45802   0.00000  Uiso   1.00
N46    N     0.99106   0.57026   0.53257   0.00000  Uiso   1.00
C47    C     0.73397   0.09933   0.42164   0.00000  Uiso   1.00
C48    C     0.73612   0.13052   0.53838   0.00000  Uiso   1.00
C49    C     0.76575   0.18136   0.53559   0.00000  Uiso   1.00
C50    C     0.76236   0.20299   0.65279   0.00000  Uiso   1.00
C51    C     0.77057   0.25570   0.81644   0.00000  Uiso   1.00
C52    C     0.75698   0.03913   0.42602   0.00000  Uiso   1.00
C53    C     0.80413   0.01314   0.32874   0.00000  Uiso   1.00
C54    C     0.81828   0.95783   0.35135   0.00000  Uiso   1.00
C55    C     0.85884   0.86864   0.34051   0.00000  Uiso   1.00
C56    C     0.66859   0.09271   0.44657   0.00000  Uiso   1.00
C57    C     0.64142   0.11176   0.36656   0.00000  Uiso   1.00
C58    C     0.58116   0.10156   0.40646   0.00000  Uiso   1.00
C59    C     0.48448   0.09556   0.42754   0.00000  Uiso   1.00
C60    C     0.67525   0.04733   0.63476   0.00000  Uiso   1.00
C61    C     0.70423   0.10227   0.65414   0.00000  Uiso   1.00
C62    C     0.70078   0.12383   0.77138   0.00000  Uiso   1.00
C63    C     0.73040   0.17470   0.76876   0.00000  Uiso   1.00
C64    C     0.72508   0.01089   0.54177   0.00000  Uiso   1.00
C65    C     0.73916   0.95561   0.56452   0.00000  Uiso   1.00
C66    C     0.78633   0.92954   0.46731   0.00000  Uiso   1.00
C67    C     0.63669   0.06447   0.56233   0.00000  Uiso   1.00
C68    C     0.57645   0.05423   0.60236   0.00000  Uiso   1.00
C69    C     0.54921   0.07326   0.52243   0.00000  Uiso   1.00
H70    H     0.75881   0.12132   0.33152   0.00000  Uiso   1.00
H71    H     0.79044   0.20320   0.44598   0.00000  Uiso   1.00
H72    H     0.82880   0.03500   0.23916   0.00000  Uiso   1.00
H73    H     0.66612   0.13361   0.27699   0.00000  Uiso   1.00
H74    H     0.81146   0.28152   0.62394   0.00000  Uiso   1.00
H75    H     0.89234   0.92685   0.18782   0.00000  Uiso   1.00
H76    H     0.54929   0.13479   0.26758   0.00000  Uiso   1.00
H77    H     0.65042   0.02534   0.72488   0.00000  Uiso   1.00
H78    H     0.67610   0.10197   0.86094   0.00000  Uiso   1.00
H79    H     0.71447   0.93376   0.65411   0.00000  Uiso   1.00
H80    H     0.55179   0.03238   0.69194   0.00000  Uiso   1.00
H81    H     0.71866   0.19936   0.96073   0.00000  Uiso   1.00
H82    H     0.79954   0.84468   0.52461   0.00000  Uiso   1.00
H83    H     0.45649   0.05262   0.60437   0.00000  Uiso   1.00
O84    O     0.78392   0.29257   0.87473   0.00000  Uiso   1.00
O85    O     0.89003   0.82725   0.30256   0.00000  Uiso   1.00
O86    O     0.43996   0.10006   0.40720   0.00000  Uiso   1.00
N87    N     0.78608   0.25168   0.68453   0.00000  Uiso   1.00
N88    N     0.86171   0.92008   0.27680   0.00000  Uiso   1.00
N89    N     0.54099   0.11448   0.35135   0.00000  Uiso   1.00
N90    N     0.73615   0.20746   0.86576   0.00000  Uiso   1.00
N91    N     0.81177   0.87587   0.45802   0.00000  Uiso   1.00
N92    N     0.49106   0.07026   0.53257   0.00000  Uiso   1.00
C93    C     0.76603   0.59933   0.07836   0.00000  Uiso   1.00
C94    C     0.76388   0.63052   0.96162   0.00000  Uiso   1.00
C95    C     0.73425   0.68136   0.96441   0.00000  Uiso   1.00
C96    C     0.73764   0.70299   0.84721   0.00000  Uiso   1.00
C97    C     0.72943   0.75570   0.68356   0.00000  Uiso   1.00
C98    C     0.74302   0.53913   0.07398   0.00000  Uiso   1.00
C99    C     0.69587   0.51314   0.17126   0.00000  Uiso   1.00
C100   C     0.68172   0.45783   0.14865   0.00000  Uiso   1.00
C101   C     0.64116   0.36864   0.15949   0.00000  Uiso   1.00
C102   C     0.83141   0.59271   0.05343   0.00000  Uiso   1.00
C103   C     0.85858   0.61176   0.13344   0.00000  Uiso   1.00
C104   C     0.91884   0.60156   0.09354   0.00000  Uiso   1.00
C105   C     0.01552   0.59556   0.07246   0.00000  Uiso   1.00
C106   C     0.82475   0.54733   0.86524   0.00000  Uiso   1.00
C107   C     0.79577   0.60227   0.84586   0.00000  Uiso   1.00
C108   C     0.79922   0.62383   0.72862   0.00000  Uiso   1.00
C109   C     0.76960   0.67470   0.73124   0.00000  Uiso   1.00
C110   C     0.77492   0.51089   0.95823   0.00000  Uiso   1.00
C111   C     0.76084   0.45561   0.93548   0.00000  Uiso   1.00
C112   C     0.71367   0.42954   0.03269   0.00000  Uiso   1.00
C113   C     0.86331   0.56447   0.93767   0.00000  Uiso   1.00
C114   C     0.92355   0.55423   0.89764   0.00000  Uiso   1.00
C115   C     0.95079   0.57326   0.97757   0.00000  Uiso   1.00
H116   H     0.74119   0.62132   0.16848   0.00000  Uiso   1.00
H117   H     0.70956   0.70320   0.05402   0.00000  Uiso   1.00
H118   H     0.67120   0.53500   0.26084   0.00000  Uiso   1.00
H119   H     0.83388   0.63361   0.22301   0.00000  Uiso   1.00
H120   H     0.68854   0.78152   0.87606   0.00000  Uiso   1.00
H121   H     0.60766   0.42685   0.31218   0.00000  Uiso   1.00
H122   H     0.95071   0.63479   0.23242   0.00000  Uiso   1.00
H123   H     0.84958   0.52534   0.77512   0.00000  Uiso   1.00
H124   H     0.82390   0.60197   0.63906   0.00000  Uiso   1.00
H125   H     0.78553   0.43376   0.84589   0.00000  Uiso   1.00
H126   H     0.94821   0.53238   0.80806   0.00000  Uiso   1.00
H127   H     0.78134   0.69936   0.53927   0.00000  Uiso   1.00
H128   H     0.70046   0.34468   0.97539   0.00000  Uiso   1.00
H129   H     0.04351   0.55262   0.89563   0.00000  Uiso   1.00
O130   O     0.71608   0.79257   0.62527   0.00000  Uiso   1.00
O131   O     0.60997   0.32725   0.19744   0.00000  Uiso   1.00
O132   O     0.06004   0.60006   0.09280   0.00000  Uiso   1.00
N133   N     0.71392   0.75168   0.81547   0.00000  Uiso   1.00
N134   N     0.63829   0.42008   0.22320   0.00000  Uiso   1.00
N135   N     0.95901   0.61448   0.14865   0.00000  Uiso   1.00
N136   N     0.76385   0.70746   0.63424   0.00000  Uiso   1.00
N137   N     0.68823   0.37587   0.04198   0.00000  Uiso   1.00
N138   N     0.00894   0.57026   0.96743   0.00000  Uiso   1.00
C139   C     0.26603   0.09933   0.07836   0.00000  Uiso   1.00
C140   C     0.26388   0.13052   0.96162   0.00000  Uiso   1.00
C141   C     0.23425   0.18136   0.96441   0.00000  Uiso   1.00
C142   C     0.23764   0.20299   0.84721   0.00000  Uiso   1.00
C143   C     0.22943   0.25570   0.68356   0.00000  Uiso   1.00
C144   C     0.24302   0.03913   0.07398   0.00000  Uiso   1.00
C145   C     0.19587   0.01314   0.17126   0.00000  Uiso   1.00
C146   C     0.18172   0.95783   0.14865   0.00000  Uiso   1.00
C147   C     0.14116   0.86864   0.15949   0.00000  Uiso   1.00
C148   C     0.33141   0.09271   0.05343   0.00000  Uiso   1.00
C149   C     0.35858   0.11176   0.13344   0.00000  Uiso   1.00
C150   C     0.41884   0.10156   0.09354   0.00000  Uiso   1.00
C151   C     0.51552   0.09556   0.07246   0.00000  Uiso   1.00
C152   C     0.32475   0.04733   0.86524   0.00000  Uiso   1.00
C153   C     0.29577   0.10227   0.84586   0.00000  Uiso   1.00
C154   C     0.29922   0.12383   0.72862   0.00000  Uiso   1.00
C155   C     0.26960   0.17470   0.73124   0.00000  Uiso   1.00
C156   C     0.27492   0.01089   0.95823   0.00000  Uiso   1.00
C157   C     0.26084   0.95561   0.93548   0.00000  Uiso   1.00
C158   C     0.21367   0.92954   0.03269   0.00000  Uiso   1.00
C159   C     0.36331   0.06447   0.93767   0.00000  Uiso   1.00
C160   C     0.42355   0.05423   0.89764   0.00000  Uiso   1.00
C161   C     0.45079   0.07326   0.97757   0.00000  Uiso   1.00
H162   H     0.24119   0.12132   0.16848   0.00000  Uiso   1.00
H163   H     0.20956   0.20320   0.05402   0.00000  Uiso   1.00
H164   H     0.17120   0.03500   0.26084   0.00000  Uiso   1.00
H165   H     0.33388   0.13361   0.22301   0.00000  Uiso   1.00
H166   H     0.18854   0.28152   0.87606   0.00000  Uiso   1.00
H167   H     0.10766   0.92685   0.31218   0.00000  Uiso   1.00
H168   H     0.45071   0.13479   0.23242   0.00000  Uiso   1.00
H169   H     0.34958   0.02534   0.77512   0.00000  Uiso   1.00
H170   H     0.32390   0.10197   0.63906   0.00000  Uiso   1.00
H171   H     0.28553   0.93376   0.84589   0.00000  Uiso   1.00
H172   H     0.44821   0.03238   0.80806   0.00000  Uiso   1.00
H173   H     0.28134   0.19936   0.53927   0.00000  Uiso   1.00
H174   H     0.20046   0.84468   0.97539   0.00000  Uiso   1.00
H175   H     0.54351   0.05262   0.89563   0.00000  Uiso   1.00
O176   O     0.21608   0.29257   0.62527   0.00000  Uiso   1.00
O177   O     0.10997   0.82725   0.19744   0.00000  Uiso   1.00
O178   O     0.56004   0.10006   0.09280   0.00000  Uiso   1.00
N179   N     0.21392   0.25168   0.81547   0.00000  Uiso   1.00
N180   N     0.13829   0.92008   0.22320   0.00000  Uiso   1.00
N181   N     0.45901   0.11448   0.14865   0.00000  Uiso   1.00
N182   N     0.26385   0.20746   0.63424   0.00000  Uiso   1.00
N183   N     0.18823   0.87587   0.04198   0.00000  Uiso   1.00
N184   N     0.50894   0.07026   0.96743   0.00000  Uiso   1.00
C185   C     0.76603   0.40067   0.57836   0.00000  Uiso   1.00
C186   C     0.76388   0.36948   0.46162   0.00000  Uiso   1.00
C187   C     0.73425   0.31864   0.46441   0.00000  Uiso   1.00
C188   C     0.73764   0.29701   0.34721   0.00000  Uiso   1.00
C189   C     0.72943   0.24430   0.18356   0.00000  Uiso   1.00
C190   C     0.74302   0.46087   0.57398   0.00000  Uiso   1.00
C191   C     0.69587   0.48686   0.67126   0.00000  Uiso   1.00
C192   C     0.68172   0.54217   0.64865   0.00000  Uiso   1.00
C193   C     0.64116   0.63136   0.65949   0.00000  Uiso   1.00
C194   C     0.83141   0.40729   0.55343   0.00000  Uiso   1.00
C195   C     0.85858   0.38824   0.63344   0.00000  Uiso   1.00
C196   C     0.91884   0.39844   0.59354   0.00000  Uiso   1.00
C197   C     0.01552   0.40444   0.57246   0.00000  Uiso   1.00
C198   C     0.82475   0.45267   0.36524   0.00000  Uiso   1.00
C199   C     0.79577   0.39773   0.34586   0.00000  Uiso   1.00
C200   C     0.79922   0.37617   0.22862   0.00000  Uiso   1.00
C201   C     0.76960   0.32530   0.23124   0.00000  Uiso   1.00
C202   C     0.77492   0.48911   0.45823   0.00000  Uiso   1.00
C203   C     0.76084   0.54439   0.43548   0.00000  Uiso   1.00
C204   C     0.71367   0.57046   0.53269   0.00000  Uiso   1.00
C205   C     0.86331   0.43553   0.43767   0.00000  Uiso   1.00
C206   C     0.92355   0.44577   0.39764   0.00000  Uiso   1.00
C207   C     0.95079   0.42674   0.47757   0.00000  Uiso   1.00
H208   H     0.74119   0.37868   0.66848   0.00000  Uiso   1.00
H209   H     0.70956   0.29680   0.55402   0.00000  Uiso   1.00
H210   H     0.67120   0.46500   0.76084   0.00000  Uiso   1.00
H211   H     0.83388   0.36639   0.72301   0.00000  Uiso   1.00
H212   H     0.68854   0.21848   0.37606   0.00000  Uiso   1.00
H213   H     0.60766   0.57315   0.81218   0.00000  Uiso   1.00
H214   H     0.95071   0.36521   0.73242   0.00000  Uiso   1.00
H215   H     0.84958   0.47466   0.27512   0.00000  Uiso   1.00
H216   H     0.82390   0.39803   0.13906   0.00000  Uiso   1.00
H217   H     0.78553   0.56624   0.34589   0.00000  Uiso   1.00
H218   H     0.94821   0.46762   0.30806   0.00000  Uiso   1.00
H219   H     0.78134   0.30064   0.03927   0.00000  Uiso   1.00
H220   H     0.70046   0.65532   0.47539   0.00000  Uiso   1.00
H221   H     0.04351   0.44738   0.39563   0.00000  Uiso   1.00
O222   O     0.71608   0.20743   0.12527   0.00000  Uiso   1.00
O223   O     0.60997   0.67275   0.69744   0.00000  Uiso   1.00
O224   O     0.06004   0.39994   0.59280   0.00000  Uiso   1.00
N225   N     0.71392   0.24832   0.31547   0.00000  Uiso   1.00
N226   N     0.63829   0.57992   0.72320   0.00000  Uiso   1.00
N227   N     0.95901   0.38552   0.64865   0.00000  Uiso   1.00
N228   N     0.76385   0.29254   0.13424   0.00000  Uiso   1.00
N229   N     0.68823   0.62413   0.54198   0.00000  Uiso   1.00
N230   N     0.00894   0.42974   0.46743   0.00000  Uiso   1.00
C231   C     0.26603   0.90067   0.57836   0.00000  Uiso   1.00
C232   C     0.26388   0.86948   0.46162   0.00000  Uiso   1.00
C233   C     0.23425   0.81864   0.46441   0.00000  Uiso   1.00
C234   C     0.23764   0.79701   0.34721   0.00000  Uiso   1.00
C235   C     0.22943   0.74430   0.18356   0.00000  Uiso   1.00
C236   C     0.24302   0.96087   0.57398   0.00000  Uiso   1.00
C237   C     0.19587   0.98686   0.67126   0.00000  Uiso   1.00
C238   C     0.18172   0.04217   0.64865   0.00000  Uiso   1.00
C239   C     0.14116   0.13136   0.65949   0.00000  Uiso   1.00
C240   C     0.33141   0.90729   0.55343   0.00000  Uiso   1.00
C241   C     0.35858   0.88824   0.63344   0.00000  Uiso   1.00
C242   C     0.41884   0.89844   0.59354   0.00000  Uiso   1.00
C243   C     0.51552   0.90444   0.57246   0.00000  Uiso   1.00
C244   C     0.32475   0.95267   0.36524   0.00000  Uiso   1.00
C245   C     0.29577   0.89773   0.34586   0.00000  Uiso   1.00
C246   C     0.29922   0.87617   0.22862   0.00000  Uiso   1.00
C247   C     0.26960   0.82530   0.23124   0.00000  Uiso   1.00
C248   C     0.27492   0.98911   0.45823   0.00000  Uiso   1.00
C249   C     0.26084   0.04439   0.43548   0.00000  Uiso   1.00
C250   C     0.21367   0.07046   0.53269   0.00000  Uiso   1.00
C251   C     0.36331   0.93553   0.43767   0.00000  Uiso   1.00
C252   C     0.42355   0.94577   0.39764   0.00000  Uiso   1.00
C253   C     0.45079   0.92674   0.47757   0.00000  Uiso   1.00
H254   H     0.24119   0.87868   0.66848   0.00000  Uiso   1.00
H255   H     0.20956   0.79680   0.55402   0.00000  Uiso   1.00
H256   H     0.17120   0.96500   0.76084   0.00000  Uiso   1.00
H257   H     0.33388   0.86639   0.72301   0.00000  Uiso   1.00
H258   H     0.18854   0.71848   0.37606   0.00000  Uiso   1.00
H259   H     0.10766   0.07315   0.81218   0.00000  Uiso   1.00
H260   H     0.45071   0.86521   0.73242   0.00000  Uiso   1.00
H261   H     0.34958   0.97466   0.27512   0.00000  Uiso   1.00
H262   H     0.32390   0.89803   0.13906   0.00000  Uiso   1.00
H263   H     0.28553   0.06624   0.34589   0.00000  Uiso   1.00
H264   H     0.44821   0.96762   0.30806   0.00000  Uiso   1.00
H265   H     0.28134   0.80064   0.03927   0.00000  Uiso   1.00
H266   H     0.20046   0.15532   0.47539   0.00000  Uiso   1.00
H267   H     0.54351   0.94738   0.39563   0.00000  Uiso   1.00
O268   O     0.21608   0.70743   0.12527   0.00000  Uiso   1.00
O269   O     0.10997   0.17275   0.69744   0.00000  Uiso   1.00
O270   O     0.56004   0.89994   0.59280   0.00000  Uiso   1.00
N271   N     0.21392   0.74832   0.31547   0.00000  Uiso   1.00
N272   N     0.13829   0.07992   0.72320   0.00000  Uiso   1.00
N273   N     0.45901   0.88552   0.64865   0.00000  Uiso   1.00
N274   N     0.26385   0.79254   0.13424   0.00000  Uiso   1.00
N275   N     0.18823   0.12413   0.54198   0.00000  Uiso   1.00
N276   N     0.50894   0.92974   0.46743   0.00000  Uiso   1.00
C277   C     0.23397   0.40067   0.92164   0.00000  Uiso   1.00
C278   C     0.23612   0.36948   0.03838   0.00000  Uiso   1.00
C279   C     0.26575   0.31864   0.03559   0.00000  Uiso   1.00
C280   C     0.26236   0.29701   0.15279   0.00000  Uiso   1.00
C281   C     0.27057   0.24430   0.31644   0.00000  Uiso   1.00
C282   C     0.25698   0.46087   0.92602   0.00000  Uiso   1.00
C283   C     0.30413   0.48686   0.82874   0.00000  Uiso   1.00
C284   C     0.31828   0.54217   0.85135   0.00000  Uiso   1.00
C285   C     0.35884   0.63136   0.84051   0.00000  Uiso   1.00
C286   C     0.16859   0.40729   0.94657   0.00000  Uiso   1.00
C287   C     0.14142   0.38824   0.86656   0.00000  Uiso   1.00
C288   C     0.08116   0.39844   0.90646   0.00000  Uiso   1.00
C289   C     0.98448   0.40444   0.92754   0.00000  Uiso   1.00
C290   C     0.17525   0.45267   0.13476   0.00000  Uiso   1.00
C291   C     0.20423   0.39773   0.15414   0.00000  Uiso   1.00
C292   C     0.20078   0.37617   0.27138   0.00000  Uiso   1.00
C293   C     0.23040   0.32530   0.26876   0.00000  Uiso   1.00
C294   C     0.22508   0.48911   0.04177   0.00000  Uiso   1.00
C295   C     0.23916   0.54439   0.06452   0.00000  Uiso   1.00
C296   C     0.28633   0.57046   0.96731   0.00000  Uiso   1.00
C297   C     0.13669   0.43553   0.06233   0.00000  Uiso   1.00
C298   C     0.07645   0.44577   0.10236   0.00000  Uiso   1.00
C299   C     0.04921   0.42674   0.02243   0.00000  Uiso   1.00
H300   H     0.25881   0.37868   0.83152   0.00000  Uiso   1.00
H301   H     0.29044   0.29680   0.94598   0.00000  Uiso   1.00
H302   H     0.32880   0.46500   0.73916   0.00000  Uiso   1.00
H303   H     0.16612   0.36639   0.77699   0.00000  Uiso   1.00
H304   H     0.31146   0.21848   0.12394   0.00000  Uiso   1.00
H305   H     0.39234   0.57315   0.68782   0.00000  Uiso   1.00
H306   H     0.04929   0.36521   0.76758   0.00000  Uiso   1.00
H307   H     0.15042   0.47466   0.22488   0.00000  Uiso   1.00
H308   H     0.17610   0.39803   0.36094   0.00000  Uiso   1.00
H309   H     0.21447   0.56624   0.15411   0.00000  Uiso   1.00
H310   H     0.05179   0.46762   0.19194   0.00000  Uiso   1.00
H311   H     0.21866   0.30064   0.46073   0.00000  Uiso   1.00
H312   H     0.29954   0.65532   0.02461   0.00000  Uiso   1.00
H313   H     0.95649   0.44738   0.10437   0.00000  Uiso   1.00
O314   O     0.28392   0.20743   0.37473   0.00000  Uiso   1.00
O315   O     0.39003   0.67275   0.80256   0.00000  Uiso   1.00
O316   O     0.93996   0.39994   0.90720   0.00000  Uiso   1.00
N317   N     0.28608   0.24832   0.18453   0.00000  Uiso   1.00
N318   N     0.36171   0.57992   0.77680   0.00000  Uiso   1.00
N319   N     0.04099   0.38552   0.85135   0.00000  Uiso   1.00
N320   N     0.23615   0.29254   0.36576   0.00000  Uiso   1.00
N321   N     0.31177   0.62413   0.95802   0.00000  Uiso   1.00
N322   N     0.99106   0.42974   0.03257   0.00000  Uiso   1.00
C323   C     0.73397   0.90067   0.92164   0.00000  Uiso   1.00
C324   C     0.73612   0.86948   0.03838   0.00000  Uiso   1.00
C325   C     0.76575   0.81864   0.03559   0.00000  Uiso   1.00
C326   C     0.76236   0.79701   0.15279   0.00000  Uiso   1.00
C327   C     0.77057   0.74430   0.31644   0.00000  Uiso   1.00
C328   C     0.75698   0.96087   0.92602   0.00000  Uiso   1.00
C329   C     0.80413   0.98686   0.82874   0.00000  Uiso   1.00
C330   C     0.81828   0.04217   0.85135   0.00000  Uiso   1.00
C331   C     0.85884   0.13136   0.84051   0.00000  Uiso   1.00
C332   C     0.66859   0.90729   0.94657   0.00000  Uiso   1.00
C333   C     0.64142   0.88824   0.86656   0.00000  Uiso   1.00
C334   C     0.58116   0.89844   0.90646   0.00000  Uiso   1.00
C335   C     0.48448   0.90444   0.92754   0.00000  Uiso   1.00
C336   C     0.67525   0.95267   0.13476   0.00000  Uiso   1.00
C337   C     0.70423   0.89773   0.15414   0.00000  Uiso   1.00
C338   C     0.70078   0.87617   0.27138   0.00000  Uiso   1.00
C339   C     0.73040   0.82530   0.26876   0.00000  Uiso   1.00
C340   C     0.72508   0.98911   0.04177   0.00000  Uiso   1.00
C341   C     0.73916   0.04439   0.06452   0.00000  Uiso   1.00
C342   C     0.78633   0.07046   0.96731   0.00000  Uiso   1.00
C343   C     0.63669   0.93553   0.06233   0.00000  Uiso   1.00
C344   C     0.57645   0.94577   0.10236   0.00000  Uiso   1.00
C345   C     0.54921   0.92674   0.02243   0.00000  Uiso   1.00
H346   H     0.75881   0.87868   0.83152   0.00000  Uiso   1.00
H347   H     0.79044   0.79680   0.94598   0.00000  Uiso   1.00
H348   H     0.82880   0.96500   0.73916   0.00000  Uiso   1.00
H349   H     0.66612   0.86639   0.77699   0.00000  Uiso   1.00
H350   H     0.81146   0.71848   0.12394   0.00000  Uiso   1.00
H351   H     0.89234   0.07315   0.68782   0.00000  Uiso   1.00
H352   H     0.54929   0.86521   0.76758   0.00000  Uiso   1.00
H353   H     0.65042   0.97466   0.22488   0.00000  Uiso   1.00
H354   H     0.67610   0.89803   0.36094   0.00000  Uiso   1.00
H355   H     0.71447   0.06624   0.15411   0.00000  Uiso   1.00
H356   H     0.55179   0.96762   0.19194   0.00000  Uiso   1.00
H357   H     0.71866   0.80064   0.46073   0.00000  Uiso   1.00
H358   H     0.79954   0.15532   0.02461   0.00000  Uiso   1.00
H359   H     0.45649   0.94738   0.10437   0.00000  Uiso   1.00
O360   O     0.78392   0.70743   0.37473   0.00000  Uiso   1.00
O361   O     0.89003   0.17275   0.80256   0.00000  Uiso   1.00
O362   O     0.43996   0.89994   0.90720   0.00000  Uiso   1.00
N363   N     0.78608   0.74832   0.18453   0.00000  Uiso   1.00
N364   N     0.86171   0.07992   0.77680   0.00000  Uiso   1.00
N365   N     0.54099   0.88552   0.85135   0.00000  Uiso   1.00
N366   N     0.73615   0.79254   0.36576   0.00000  Uiso   1.00
N367   N     0.81177   0.12413   0.95802   0.00000  Uiso   1.00
N368   N     0.49106   0.92974   0.03257   0.00000  Uiso   1.00
