data_job_05917
_audit_creation_date              2018-12-19
_audit_creation_method            'Materials Studio'
_symmetry_space_group_name_H-M    'P1'
_symmetry_Int_Tables_number       1
_symmetry_cell_setting            triclinic
loop_
_symmetry_equiv_pos_as_xyz
  x,y,z
_cell_length_a                    7.4592
_cell_length_b                    24.4750
_cell_length_c                    24.5247
_cell_angle_alpha                 118.9980
_cell_angle_beta                  83.9064
_cell_angle_gamma                 84.7304
loop_
_atom_site_label
_atom_site_type_symbol
_atom_site_fract_x
_atom_site_fract_y
_atom_site_fract_z
_atom_site_U_iso_or_equiv
_atom_site_adp_type
_atom_site_occupancy
C1     C     0.25521   0.84955   0.64973   0.00000  Uiso   1.00
C2     C     0.34393   0.78336   0.63269   0.00000  Uiso   1.00
C3     C     0.25535   0.73147   0.61617   0.00000  Uiso   1.00
C4     C     0.36062   0.67504   0.60226   0.00000  Uiso   1.00
C5     C     0.46991   0.57292   0.57545   0.00000  Uiso   1.00
C6     C     0.29492   0.89428   0.71529   0.00000  Uiso   1.00
C7     C     0.16512   0.93565   0.76820   0.00000  Uiso   1.00
C8     C     0.22916   0.97260   0.82381   0.00000  Uiso   1.00
C9     C     0.26235   0.04272   0.92522   0.00000  Uiso   1.00
C10    C     0.36285   0.86558   0.60440   0.00000  Uiso   1.00
C11    C     0.29016   0.88284   0.56410   0.00000  Uiso   1.00
C12    C     0.41138   0.89564   0.52636   0.00000  Uiso   1.00
C13    C     0.55005   0.92120   0.45561   0.00000  Uiso   1.00
C14    C     0.59971   0.84161   0.65439   0.00000  Uiso   1.00
C15    C     0.53105   0.77904   0.63523   0.00000  Uiso   1.00
C16    C     0.63649   0.72268   0.62133   0.00000  Uiso   1.00
C17    C     0.54808   0.67071   0.60479   0.00000  Uiso   1.00
C18    C     0.48203   0.88996   0.71782   0.00000  Uiso   1.00
C19    C     0.54627   0.92686   0.77336   0.00000  Uiso   1.00
C20    C     0.41661   0.96828   0.82635   0.00000  Uiso   1.00
C21    C     0.54997   0.86126   0.60693   0.00000  Uiso   1.00
C22    C     0.67132   0.87404   0.56926   0.00000  Uiso   1.00
C23    C     0.59884   0.89132   0.52890   0.00000  Uiso   1.00
H24    H     0.10953   0.85292   0.64776   0.00000  Uiso   1.00
H25    H     0.11053   0.73483   0.61423   0.00000  Uiso   1.00
H26    H     0.02033   0.93899   0.76623   0.00000  Uiso   1.00
H27    H     0.14536   0.88618   0.56216   0.00000  Uiso   1.00
H28    H     0.19415   0.60201   0.57818   0.00000  Uiso   1.00
H29    H     0.00396   0.03250   0.89869   0.00000  Uiso   1.00
H30    H     0.26760   0.92115   0.46836   0.00000  Uiso   1.00
H31    H     0.74539   0.83825   0.65636   0.00000  Uiso   1.00
H32    H     0.78129   0.71935   0.62329   0.00000  Uiso   1.00
H33    H     0.69108   0.92351   0.77530   0.00000  Uiso   1.00
H34    H     0.81611   0.87070   0.57123   0.00000  Uiso   1.00
H35    H     0.73856   0.58945   0.58555   0.00000  Uiso   1.00
H36    H     0.54837   0.01994   0.90605   0.00000  Uiso   1.00
H37    H     0.81201   0.90859   0.47573   0.00000  Uiso   1.00
O38    O     0.47849   0.51779   0.55998   0.00000  Uiso   1.00
O39    O     0.22896   0.08258   0.98046   0.00000  Uiso   1.00
O40    O     0.57485   0.93648   0.41588   0.00000  Uiso   1.00
N41    N     0.31736   0.61537   0.58444   0.00000  Uiso   1.00
N42    N     0.13954   0.01785   0.88410   0.00000  Uiso   1.00
N43    N     0.38601   0.91375   0.48179   0.00000  Uiso   1.00
N44    N     0.61030   0.60861   0.58840   0.00000  Uiso   1.00
N45    N     0.43248   0.01109   0.88806   0.00000  Uiso   1.00
N46    N     0.67895   0.90699   0.48575   0.00000  Uiso   1.00
C47    C     0.90273   0.35014   0.19981   0.00000  Uiso   1.00
C48    C     0.97590   0.36732   0.15061   0.00000  Uiso   1.00
C49    C     0.87196   0.38371   0.11545   0.00000  Uiso   1.00
C50    C     0.96459   0.39780   0.07285   0.00000  Uiso   1.00
C51    C     0.04935   0.42479   0.99751   0.00000  Uiso   1.00
C52    C     0.00698   0.28465   0.17887   0.00000  Uiso   1.00
C53    C     0.92915   0.23154   0.16748   0.00000  Uiso   1.00
C54    C     0.04794   0.17604   0.14868   0.00000  Uiso   1.00
C55    C     0.18095   0.07470   0.11725   0.00000  Uiso   1.00
C56    C     0.96471   0.39561   0.26096   0.00000  Uiso   1.00
C57    C     0.85136   0.43578   0.31861   0.00000  Uiso   1.00
C58    C     0.93457   0.47370   0.36893   0.00000  Uiso   1.00
C59    C     0.00195   0.54464   0.46498   0.00000  Uiso   1.00
C60    C     0.25207   0.34603   0.18669   0.00000  Uiso   1.00
C61    C     0.16565   0.36509   0.14348   0.00000  Uiso   1.00
C62    C     0.25846   0.37916   0.10093   0.00000  Uiso   1.00
C63    C     0.15467   0.39557   0.06571   0.00000  Uiso   1.00
C64    C     0.19672   0.28242   0.17174   0.00000  Uiso   1.00
C65    C     0.31565   0.22699   0.15296   0.00000  Uiso   1.00
C66    C     0.23803   0.17380   0.14153   0.00000  Uiso   1.00
C67    C     0.15446   0.39338   0.25384   0.00000  Uiso   1.00
C68    C     0.23786   0.43124   0.30409   0.00000  Uiso   1.00
C69    C     0.12466   0.47146   0.36179   0.00000  Uiso   1.00
H70    H     0.75501   0.35187   0.20536   0.00000  Uiso   1.00
H71    H     0.72512   0.38543   0.12097   0.00000  Uiso   1.00
H72    H     0.78231   0.23328   0.17300   0.00000  Uiso   1.00
H73    H     0.70453   0.43750   0.32410   0.00000  Uiso   1.00
H74    H     0.77567   0.42162   0.02425   0.00000  Uiso   1.00
H75    H     0.89625   0.10082   0.13397   0.00000  Uiso   1.00
H76    H     0.73223   0.53145   0.45261   0.00000  Uiso   1.00
H77    H     0.39980   0.34429   0.18114   0.00000  Uiso   1.00
H78    H     0.40530   0.37743   0.09542   0.00000  Uiso   1.00
H79    H     0.46248   0.22528   0.14745   0.00000  Uiso   1.00
H80    H     0.38470   0.42950   0.29855   0.00000  Uiso   1.00
H81    H     0.32773   0.41512   0.00351   0.00000  Uiso   1.00
H82    H     0.44831   0.09432   0.11324   0.00000  Uiso   1.00
H83    H     0.28429   0.52495   0.43187   0.00000  Uiso   1.00
O84    O     0.04369   0.44029   0.95792   0.00000  Uiso   1.00
O85    O     0.20188   0.01941   0.10188   0.00000  Uiso   1.00
O86    O     0.98669   0.58439   0.51992   0.00000  Uiso   1.00
N87    N     0.90484   0.41556   0.03114   0.00000  Uiso   1.00
N88    N     0.01758   0.11562   0.13372   0.00000  Uiso   1.00
N89    N     0.86424   0.51821   0.43162   0.00000  Uiso   1.00
N90    N     0.20190   0.41206   0.01998   0.00000  Uiso   1.00
N91    N     0.31464   0.11213   0.12256   0.00000  Uiso   1.00
N92    N     0.16129   0.51472   0.42046   0.00000  Uiso   1.00
C93    C     0.10544   0.80041   0.15046   0.00000  Uiso   1.00
C94    C     0.12904   0.84971   0.21670   0.00000  Uiso   1.00
C95    C     0.98959   0.88469   0.26838   0.00000  Uiso   1.00
C96    C     0.03932   0.92742   0.32490   0.00000  Uiso   1.00
C97    C     0.04818   0.00287   0.42705   0.00000  Uiso   1.00
C98    C     0.19021   0.82153   0.10585   0.00000  Uiso   1.00
C99    C     0.10218   0.83281   0.06432   0.00000  Uiso   1.00
C100   C     0.20342   0.85180   0.02752   0.00000  Uiso   1.00
C101   C     0.30727   0.88345   0.95753   0.00000  Uiso   1.00
C102   C     0.22753   0.73937   0.13464   0.00000  Uiso   1.00
C103   C     0.17090   0.68155   0.11729   0.00000  Uiso   1.00
C104   C     0.30357   0.63137   0.10471   0.00000  Uiso   1.00
C105   C     0.46537   0.53544   0.07942   0.00000  Uiso   1.00
C106   C     0.44176   0.81408   0.15894   0.00000  Uiso   1.00
C107   C     0.31172   0.85714   0.22131   0.00000  Uiso   1.00
C108   C     0.36169   0.89982   0.27776   0.00000  Uiso   1.00
C109   C     0.22233   0.93486   0.32951   0.00000  Uiso   1.00
C110   C     0.37288   0.82896   0.11046   0.00000  Uiso   1.00
C111   C     0.47428   0.84793   0.07370   0.00000  Uiso   1.00
C112   C     0.38642   0.85924   0.03213   0.00000  Uiso   1.00
C113   C     0.41021   0.74679   0.13924   0.00000  Uiso   1.00
C114   C     0.54300   0.69668   0.12668   0.00000  Uiso   1.00
C115   C     0.48658   0.63881   0.10932   0.00000  Uiso   1.00
H116   H     0.96322   0.79463   0.14687   0.00000  Uiso   1.00
H117   H     0.84823   0.87894   0.26480   0.00000  Uiso   1.00
H118   H     0.96082   0.82705   0.06076   0.00000  Uiso   1.00
H119   H     0.02952   0.67582   0.11373   0.00000  Uiso   1.00
H120   H     0.80130   0.97570   0.39756   0.00000  Uiso   1.00
H121   H     0.03871   0.86627   0.96733   0.00000  Uiso   1.00
H122   H     0.18359   0.54738   0.07903   0.00000  Uiso   1.00
H123   H     0.58399   0.81986   0.16252   0.00000  Uiso   1.00
H124   H     0.50306   0.90556   0.28131   0.00000  Uiso   1.00
H125   H     0.61564   0.85367   0.07728   0.00000  Uiso   1.00
H126   H     0.68435   0.70245   0.13025   0.00000  Uiso   1.00
H127   H     0.33278   0.99731   0.41096   0.00000  Uiso   1.00
H128   H     0.57019   0.88788   0.98073   0.00000  Uiso   1.00
H129   H     0.71507   0.56899   0.09243   0.00000  Uiso   1.00
O130   O     0.00260   0.04244   0.48211   0.00000  Uiso   1.00
O131   O     0.31408   0.89886   0.91767   0.00000  Uiso   1.00
O132   O     0.50415   0.48048   0.06421   0.00000  Uiso   1.00
N133   N     0.93750   0.96901   0.38442   0.00000  Uiso   1.00
N134   N     0.15945   0.86672   0.98219   0.00000  Uiso   1.00
N135   N     0.29491   0.56857   0.08659   0.00000  Uiso   1.00
N136   N     0.22348   0.98064   0.39163   0.00000  Uiso   1.00
N137   N     0.44544   0.87835   0.98940   0.00000  Uiso   1.00
N138   N     0.58089   0.58020   0.09381   0.00000  Uiso   1.00
C139   C     0.74479   0.15045   0.35027   0.00000  Uiso   1.00
C140   C     0.65607   0.21664   0.36731   0.00000  Uiso   1.00
C141   C     0.74465   0.26853   0.38383   0.00000  Uiso   1.00
C142   C     0.63938   0.32496   0.39774   0.00000  Uiso   1.00
C143   C     0.53009   0.42708   0.42455   0.00000  Uiso   1.00
C144   C     0.70508   0.10572   0.28471   0.00000  Uiso   1.00
C145   C     0.83488   0.06435   0.23179   0.00000  Uiso   1.00
C146   C     0.77084   0.02740   0.17619   0.00000  Uiso   1.00
C147   C     0.73765   0.95728   0.07478   0.00000  Uiso   1.00
C148   C     0.63715   0.13442   0.39559   0.00000  Uiso   1.00
C149   C     0.70984   0.11716   0.43590   0.00000  Uiso   1.00
C150   C     0.58862   0.10436   0.47363   0.00000  Uiso   1.00
C151   C     0.44995   0.07880   0.54439   0.00000  Uiso   1.00
C152   C     0.40029   0.15839   0.34561   0.00000  Uiso   1.00
C153   C     0.46895   0.22096   0.36477   0.00000  Uiso   1.00
C154   C     0.36351   0.27732   0.37867   0.00000  Uiso   1.00
C155   C     0.45192   0.32929   0.39521   0.00000  Uiso   1.00
C156   C     0.51797   0.11004   0.28218   0.00000  Uiso   1.00
C157   C     0.45373   0.07314   0.22664   0.00000  Uiso   1.00
C158   C     0.58339   0.03172   0.17365   0.00000  Uiso   1.00
C159   C     0.45003   0.13874   0.39307   0.00000  Uiso   1.00
C160   C     0.32868   0.12596   0.43074   0.00000  Uiso   1.00
C161   C     0.40116   0.10868   0.47110   0.00000  Uiso   1.00
H162   H     0.89047   0.14708   0.35224   0.00000  Uiso   1.00
H163   H     0.88947   0.26517   0.38577   0.00000  Uiso   1.00
H164   H     0.97967   0.06101   0.23377   0.00000  Uiso   1.00
H165   H     0.85464   0.11382   0.43784   0.00000  Uiso   1.00
H166   H     0.80585   0.39799   0.42182   0.00000  Uiso   1.00
H167   H     0.99604   0.96750   0.10131   0.00000  Uiso   1.00
H168   H     0.73240   0.07885   0.53164   0.00000  Uiso   1.00
H169   H     0.25461   0.16175   0.34364   0.00000  Uiso   1.00
H170   H     0.21871   0.28065   0.37671   0.00000  Uiso   1.00
H171   H     0.30892   0.07649   0.22470   0.00000  Uiso   1.00
H172   H     0.18389   0.12930   0.42877   0.00000  Uiso   1.00
H173   H     0.26144   0.41055   0.41445   0.00000  Uiso   1.00
H174   H     0.45163   0.98006   0.09395   0.00000  Uiso   1.00
H175   H     0.18799   0.09141   0.52427   0.00000  Uiso   1.00
O176   O     0.52151   0.48221   0.44002   0.00000  Uiso   1.00
O177   O     0.77104   0.91742   0.01954   0.00000  Uiso   1.00
O178   O     0.42515   0.06352   0.58411   0.00000  Uiso   1.00
N179   N     0.68264   0.38463   0.41556   0.00000  Uiso   1.00
N180   N     0.86046   0.98215   0.11590   0.00000  Uiso   1.00
N181   N     0.61399   0.08624   0.51821   0.00000  Uiso   1.00
N182   N     0.38970   0.39139   0.41160   0.00000  Uiso   1.00
N183   N     0.56752   0.98891   0.11194   0.00000  Uiso   1.00
N184   N     0.32105   0.09301   0.51425   0.00000  Uiso   1.00
C185   C     0.09727   0.64986   0.80019   0.00000  Uiso   1.00
C186   C     0.02410   0.63268   0.84939   0.00000  Uiso   1.00
C187   C     0.12804   0.61629   0.88455   0.00000  Uiso   1.00
C188   C     0.03541   0.60220   0.92715   0.00000  Uiso   1.00
C189   C     0.95065   0.57521   0.00249   0.00000  Uiso   1.00
C190   C     0.99302   0.71535   0.82113   0.00000  Uiso   1.00
C191   C     0.07085   0.76846   0.83252   0.00000  Uiso   1.00
C192   C     0.95206   0.82396   0.85132   0.00000  Uiso   1.00
C193   C     0.81905   0.92530   0.88275   0.00000  Uiso   1.00
C194   C     0.03529   0.60439   0.73904   0.00000  Uiso   1.00
C195   C     0.14864   0.56422   0.68139   0.00000  Uiso   1.00
C196   C     0.06543   0.52630   0.63107   0.00000  Uiso   1.00
C197   C     0.99805   0.45536   0.53502   0.00000  Uiso   1.00
C198   C     0.74793   0.65397   0.81331   0.00000  Uiso   1.00
C199   C     0.83435   0.63491   0.85652   0.00000  Uiso   1.00
C200   C     0.74154   0.62084   0.89907   0.00000  Uiso   1.00
C201   C     0.84533   0.60443   0.93429   0.00000  Uiso   1.00
C202   C     0.80328   0.71758   0.82826   0.00000  Uiso   1.00
C203   C     0.68435   0.77301   0.84704   0.00000  Uiso   1.00
C204   C     0.76197   0.82620   0.85846   0.00000  Uiso   1.00
C205   C     0.84554   0.60662   0.74616   0.00000  Uiso   1.00
C206   C     0.76214   0.56876   0.69591   0.00000  Uiso   1.00
C207   C     0.87534   0.52854   0.63821   0.00000  Uiso   1.00
H208   H     0.24499   0.64813   0.79464   0.00000  Uiso   1.00
H209   H     0.27488   0.61457   0.87903   0.00000  Uiso   1.00
H210   H     0.21769   0.76672   0.82700   0.00000  Uiso   1.00
H211   H     0.29547   0.56250   0.67590   0.00000  Uiso   1.00
H212   H     0.22433   0.57838   0.97575   0.00000  Uiso   1.00
H213   H     0.10375   0.89918   0.86602   0.00000  Uiso   1.00
H214   H     0.26777   0.46855   0.54739   0.00000  Uiso   1.00
H215   H     0.60020   0.65571   0.81886   0.00000  Uiso   1.00
H216   H     0.59470   0.62257   0.90458   0.00000  Uiso   1.00
H217   H     0.53752   0.77472   0.85255   0.00000  Uiso   1.00
H218   H     0.61530   0.57050   0.70144   0.00000  Uiso   1.00
H219   H     0.67227   0.58488   0.99649   0.00000  Uiso   1.00
H220   H     0.55169   0.90568   0.88676   0.00000  Uiso   1.00
H221   H     0.71571   0.47505   0.56813   0.00000  Uiso   1.00
O222   O     0.95631   0.55971   0.04208   0.00000  Uiso   1.00
O223   O     0.79812   0.98059   0.89812   0.00000  Uiso   1.00
O224   O     0.01331   0.41561   0.48008   0.00000  Uiso   1.00
N225   N     0.09516   0.58444   0.96886   0.00000  Uiso   1.00
N226   N     0.98242   0.88438   0.86628   0.00000  Uiso   1.00
N227   N     0.13576   0.48179   0.56838   0.00000  Uiso   1.00
N228   N     0.79810   0.58794   0.98001   0.00000  Uiso   1.00
N229   N     0.68536   0.88787   0.87744   0.00000  Uiso   1.00
N230   N     0.83871   0.48528   0.57954   0.00000  Uiso   1.00
C231   C     0.89456   0.19959   0.84954   0.00000  Uiso   1.00
C232   C     0.87096   0.15029   0.78329   0.00000  Uiso   1.00
C233   C     0.01041   0.11531   0.73162   0.00000  Uiso   1.00
C234   C     0.96068   0.07258   0.67510   0.00000  Uiso   1.00
C235   C     0.95182   0.99713   0.57295   0.00000  Uiso   1.00
C236   C     0.80979   0.17847   0.89415   0.00000  Uiso   1.00
C237   C     0.89782   0.16719   0.93568   0.00000  Uiso   1.00
C238   C     0.79658   0.14820   0.97248   0.00000  Uiso   1.00
C239   C     0.69273   0.11655   0.04247   0.00000  Uiso   1.00
C240   C     0.77247   0.26063   0.86536   0.00000  Uiso   1.00
C241   C     0.82910   0.31845   0.88271   0.00000  Uiso   1.00
C242   C     0.69643   0.36863   0.89529   0.00000  Uiso   1.00
C243   C     0.53463   0.46456   0.92058   0.00000  Uiso   1.00
C244   C     0.55824   0.18592   0.84106   0.00000  Uiso   1.00
C245   C     0.68828   0.14286   0.77869   0.00000  Uiso   1.00
C246   C     0.63831   0.10018   0.72224   0.00000  Uiso   1.00
C247   C     0.77767   0.06514   0.67049   0.00000  Uiso   1.00
C248   C     0.62712   0.17104   0.88954   0.00000  Uiso   1.00
C249   C     0.52572   0.15207   0.92630   0.00000  Uiso   1.00
C250   C     0.61358   0.14076   0.96787   0.00000  Uiso   1.00
C251   C     0.58979   0.25321   0.86075   0.00000  Uiso   1.00
C252   C     0.45700   0.30332   0.87332   0.00000  Uiso   1.00
C253   C     0.51342   0.36119   0.89068   0.00000  Uiso   1.00
H254   H     0.03678   0.20537   0.85313   0.00000  Uiso   1.00
H255   H     0.15177   0.12106   0.73520   0.00000  Uiso   1.00
H256   H     0.03918   0.17295   0.93923   0.00000  Uiso   1.00
H257   H     0.97048   0.32418   0.88627   0.00000  Uiso   1.00
H258   H     0.19870   0.02430   0.60244   0.00000  Uiso   1.00
H259   H     0.96129   0.13373   0.03267   0.00000  Uiso   1.00
H260   H     0.81641   0.45262   0.92097   0.00000  Uiso   1.00
H261   H     0.41601   0.18013   0.83747   0.00000  Uiso   1.00
H262   H     0.49694   0.09444   0.71869   0.00000  Uiso   1.00
H263   H     0.38436   0.14633   0.92272   0.00000  Uiso   1.00
H264   H     0.31565   0.29755   0.86975   0.00000  Uiso   1.00
H265   H     0.66721   0.00269   0.58904   0.00000  Uiso   1.00
H266   H     0.42981   0.11212   0.01927   0.00000  Uiso   1.00
H267   H     0.28493   0.43101   0.90757   0.00000  Uiso   1.00
O268   O     0.99740   0.95756   0.51789   0.00000  Uiso   1.00
O269   O     0.68592   0.10114   0.08233   0.00000  Uiso   1.00
O270   O     0.49585   0.51952   0.93579   0.00000  Uiso   1.00
N271   N     0.06250   0.03099   0.61558   0.00000  Uiso   1.00
N272   N     0.84055   0.13328   0.01781   0.00000  Uiso   1.00
N273   N     0.70509   0.43143   0.91341   0.00000  Uiso   1.00
N274   N     0.77652   0.01936   0.60837   0.00000  Uiso   1.00
N275   N     0.55456   0.12165   0.01060   0.00000  Uiso   1.00
N276   N     0.41911   0.41980   0.90619   0.00000  Uiso   1.00
