data_job_03827
_audit_creation_date              2018-12-19
_audit_creation_method            'Materials Studio'
_symmetry_space_group_name_H-M    'P1'
_symmetry_Int_Tables_number       1
_symmetry_cell_setting            triclinic
loop_
_symmetry_equiv_pos_as_xyz
  x,y,z
_cell_length_a                    16.8754
_cell_length_b                    16.8754
_cell_length_c                    28.6568
_cell_angle_alpha                 90.0000
_cell_angle_beta                  90.0000
_cell_angle_gamma                 90.0000
loop_
_atom_site_label
_atom_site_type_symbol
_atom_site_fract_x
_atom_site_fract_y
_atom_site_fract_z
_atom_site_U_iso_or_equiv
_atom_site_adp_type
_atom_site_occupancy
C1     C     0.27424   0.77414   0.24329   0.00000  Uiso   1.00
C2     C     0.27104   0.77085   0.29644   0.00000  Uiso   1.00
C3     C     0.31649   0.81623   0.32668   0.00000  Uiso   1.00
C4     C     0.30479   0.80443   0.37413   0.00000  Uiso   1.00
C5     C     0.30825   0.80769   0.45413   0.00000  Uiso   1.00
C6     C     0.29206   0.68991   0.22714   0.00000  Uiso   1.00
C7     C     0.35518   0.66724   0.19911   0.00000  Uiso   1.00
C8     C     0.36116   0.58729   0.18822   0.00000  Uiso   1.00
C9     C     0.39722   0.46489   0.16060   0.00000  Uiso   1.00
C10    C     0.18998   0.79199   0.22719   0.00000  Uiso   1.00
C11    C     0.16727   0.85514   0.19920   0.00000  Uiso   1.00
C12    C     0.08731   0.86113   0.18835   0.00000  Uiso   1.00
C13    C     0.96487   0.89723   0.16082   0.00000  Uiso   1.00
C14    C     0.17262   0.67248   0.27378   0.00000  Uiso   1.00
C15    C     0.21585   0.71563   0.31300   0.00000  Uiso   1.00
C16    C     0.20407   0.70375   0.36041   0.00000  Uiso   1.00
C17    C     0.24949   0.74911   0.39072   0.00000  Uiso   1.00
C18    C     0.23687   0.63469   0.24370   0.00000  Uiso   1.00
C19    C     0.24275   0.55475   0.23284   0.00000  Uiso   1.00
C20    C     0.30587   0.53197   0.20481   0.00000  Uiso   1.00
C21    C     0.13478   0.73677   0.24376   0.00000  Uiso   1.00
C22    C     0.05484   0.74266   0.23294   0.00000  Uiso   1.00
C23    C     0.03201   0.80581   0.20494   0.00000  Uiso   1.00
H24    H     0.31721   0.81713   0.23040   0.00000  Uiso   1.00
H25    H     0.35921   0.85896   0.31385   0.00000  Uiso   1.00
H26    H     0.39788   0.70999   0.18629   0.00000  Uiso   1.00
H27    H     0.21000   0.89786   0.18639   0.00000  Uiso   1.00
H28    H     0.38145   0.88096   0.41367   0.00000  Uiso   1.00
H29    H     0.46298   0.56685   0.14471   0.00000  Uiso   1.00
H30    H     0.06679   0.96302   0.14491   0.00000  Uiso   1.00
H31    H     0.12965   0.62948   0.28667   0.00000  Uiso   1.00
H32    H     0.16135   0.66101   0.37322   0.00000  Uiso   1.00
H33    H     0.20003   0.51204   0.24566   0.00000  Uiso   1.00
H34    H     0.01214   0.69991   0.24576   0.00000  Uiso   1.00
H35    H     0.22086   0.72030   0.46186   0.00000  Uiso   1.00
H36    H     0.30239   0.40618   0.19289   0.00000  Uiso   1.00
H37    H     0.90621   0.80235   0.19309   0.00000  Uiso   1.00
O38    O     0.32541   0.82474   0.49368   0.00000  Uiso   1.00
O39    O     0.43237   0.41264   0.14080   0.00000  Uiso   1.00
O40    O     0.91259   0.93241   0.14107   0.00000  Uiso   1.00
N41    N     0.33929   0.83883   0.41314   0.00000  Uiso   1.00
N42    N     0.41552   0.54515   0.16168   0.00000  Uiso   1.00
N43    N     0.04513   0.91553   0.16185   0.00000  Uiso   1.00
N44    N     0.25288   0.75238   0.43907   0.00000  Uiso   1.00
N45    N     0.32911   0.45870   0.18760   0.00000  Uiso   1.00
N46    N     0.95872   0.82908   0.18778   0.00000  Uiso   1.00
C47    C     0.72576   0.22586   0.24329   0.00000  Uiso   1.00
C48    C     0.72896   0.22915   0.29644   0.00000  Uiso   1.00
C49    C     0.68351   0.18377   0.32668   0.00000  Uiso   1.00
C50    C     0.69521   0.19557   0.37413   0.00000  Uiso   1.00
C51    C     0.69175   0.19231   0.45413   0.00000  Uiso   1.00
C52    C     0.70794   0.31009   0.22714   0.00000  Uiso   1.00
C53    C     0.64482   0.33276   0.19911   0.00000  Uiso   1.00
C54    C     0.63884   0.41271   0.18822   0.00000  Uiso   1.00
C55    C     0.60278   0.53511   0.16060   0.00000  Uiso   1.00
C56    C     0.81002   0.20801   0.22719   0.00000  Uiso   1.00
C57    C     0.83273   0.14486   0.19920   0.00000  Uiso   1.00
C58    C     0.91269   0.13887   0.18835   0.00000  Uiso   1.00
C59    C     0.03513   0.10277   0.16082   0.00000  Uiso   1.00
C60    C     0.82738   0.32752   0.27378   0.00000  Uiso   1.00
C61    C     0.78415   0.28437   0.31300   0.00000  Uiso   1.00
C62    C     0.79593   0.29625   0.36041   0.00000  Uiso   1.00
C63    C     0.75051   0.25089   0.39072   0.00000  Uiso   1.00
C64    C     0.76313   0.36531   0.24370   0.00000  Uiso   1.00
C65    C     0.75725   0.44525   0.23284   0.00000  Uiso   1.00
C66    C     0.69413   0.46803   0.20481   0.00000  Uiso   1.00
C67    C     0.86522   0.26323   0.24376   0.00000  Uiso   1.00
C68    C     0.94516   0.25734   0.23294   0.00000  Uiso   1.00
C69    C     0.96799   0.19419   0.20494   0.00000  Uiso   1.00
H70    H     0.68279   0.18287   0.23040   0.00000  Uiso   1.00
H71    H     0.64079   0.14104   0.31385   0.00000  Uiso   1.00
H72    H     0.60212   0.29001   0.18629   0.00000  Uiso   1.00
H73    H     0.79000   0.10214   0.18639   0.00000  Uiso   1.00
H74    H     0.61855   0.11904   0.41367   0.00000  Uiso   1.00
H75    H     0.53702   0.43315   0.14471   0.00000  Uiso   1.00
H76    H     0.93321   0.03698   0.14491   0.00000  Uiso   1.00
H77    H     0.87035   0.37052   0.28667   0.00000  Uiso   1.00
H78    H     0.83865   0.33899   0.37322   0.00000  Uiso   1.00
H79    H     0.79997   0.48796   0.24566   0.00000  Uiso   1.00
H80    H     0.98786   0.30009   0.24576   0.00000  Uiso   1.00
H81    H     0.77914   0.27970   0.46186   0.00000  Uiso   1.00
H82    H     0.69761   0.59382   0.19289   0.00000  Uiso   1.00
H83    H     0.09379   0.19765   0.19309   0.00000  Uiso   1.00
O84    O     0.67459   0.17526   0.49368   0.00000  Uiso   1.00
O85    O     0.56763   0.58736   0.14080   0.00000  Uiso   1.00
O86    O     0.08741   0.06759   0.14107   0.00000  Uiso   1.00
N87    N     0.66071   0.16117   0.41314   0.00000  Uiso   1.00
N88    N     0.58448   0.45485   0.16168   0.00000  Uiso   1.00
N89    N     0.95487   0.08447   0.16185   0.00000  Uiso   1.00
N90    N     0.74712   0.24762   0.43907   0.00000  Uiso   1.00
N91    N     0.67089   0.54130   0.18760   0.00000  Uiso   1.00
N92    N     0.04128   0.17092   0.18778   0.00000  Uiso   1.00
C93    C     0.72586   0.77424   0.74329   0.00000  Uiso   1.00
C94    C     0.72915   0.77104   0.79644   0.00000  Uiso   1.00
C95    C     0.68377   0.81649   0.82668   0.00000  Uiso   1.00
C96    C     0.69557   0.80479   0.87413   0.00000  Uiso   1.00
C97    C     0.69231   0.80825   0.95413   0.00000  Uiso   1.00
C98    C     0.81009   0.79206   0.72714   0.00000  Uiso   1.00
C99    C     0.83276   0.85518   0.69911   0.00000  Uiso   1.00
C100   C     0.91271   0.86116   0.68822   0.00000  Uiso   1.00
C101   C     0.03511   0.89722   0.66060   0.00000  Uiso   1.00
C102   C     0.70801   0.68998   0.72719   0.00000  Uiso   1.00
C103   C     0.64486   0.66727   0.69920   0.00000  Uiso   1.00
C104   C     0.63887   0.58731   0.68835   0.00000  Uiso   1.00
C105   C     0.60277   0.46487   0.66082   0.00000  Uiso   1.00
C106   C     0.82752   0.67262   0.77378   0.00000  Uiso   1.00
C107   C     0.78437   0.71585   0.81300   0.00000  Uiso   1.00
C108   C     0.79625   0.70407   0.86041   0.00000  Uiso   1.00
C109   C     0.75089   0.74949   0.89072   0.00000  Uiso   1.00
C110   C     0.86531   0.73687   0.74370   0.00000  Uiso   1.00
C111   C     0.94525   0.74275   0.73284   0.00000  Uiso   1.00
C112   C     0.96803   0.80587   0.70481   0.00000  Uiso   1.00
C113   C     0.76323   0.63478   0.74376   0.00000  Uiso   1.00
C114   C     0.75734   0.55484   0.73294   0.00000  Uiso   1.00
C115   C     0.69419   0.53201   0.70494   0.00000  Uiso   1.00
H116   H     0.68287   0.81721   0.73040   0.00000  Uiso   1.00
H117   H     0.64104   0.85921   0.81385   0.00000  Uiso   1.00
H118   H     0.79001   0.89788   0.68629   0.00000  Uiso   1.00
H119   H     0.60214   0.71000   0.68639   0.00000  Uiso   1.00
H120   H     0.61904   0.88145   0.91367   0.00000  Uiso   1.00
H121   H     0.93315   0.96298   0.64471   0.00000  Uiso   1.00
H122   H     0.53698   0.56679   0.64491   0.00000  Uiso   1.00
H123   H     0.87052   0.62965   0.78667   0.00000  Uiso   1.00
H124   H     0.83899   0.66135   0.87322   0.00000  Uiso   1.00
H125   H     0.98796   0.70003   0.74566   0.00000  Uiso   1.00
H126   H     0.80009   0.51214   0.74576   0.00000  Uiso   1.00
H127   H     0.77970   0.72086   0.96186   0.00000  Uiso   1.00
H128   H     0.09382   0.80239   0.69289   0.00000  Uiso   1.00
H129   H     0.69765   0.40621   0.69309   0.00000  Uiso   1.00
O130   O     0.67526   0.82541   0.99368   0.00000  Uiso   1.00
O131   O     0.08736   0.93237   0.64080   0.00000  Uiso   1.00
O132   O     0.56759   0.41259   0.64107   0.00000  Uiso   1.00
N133   N     0.66117   0.83929   0.91314   0.00000  Uiso   1.00
N134   N     0.95485   0.91552   0.66168   0.00000  Uiso   1.00
N135   N     0.58447   0.54513   0.66185   0.00000  Uiso   1.00
N136   N     0.74762   0.75288   0.93907   0.00000  Uiso   1.00
N137   N     0.04130   0.82911   0.68760   0.00000  Uiso   1.00
N138   N     0.67092   0.45872   0.68778   0.00000  Uiso   1.00
C139   C     0.27414   0.22576   0.74329   0.00000  Uiso   1.00
C140   C     0.27085   0.22896   0.79644   0.00000  Uiso   1.00
C141   C     0.31623   0.18351   0.82668   0.00000  Uiso   1.00
C142   C     0.30443   0.19521   0.87413   0.00000  Uiso   1.00
C143   C     0.30769   0.19175   0.95413   0.00000  Uiso   1.00
C144   C     0.18991   0.20794   0.72714   0.00000  Uiso   1.00
C145   C     0.16724   0.14482   0.69911   0.00000  Uiso   1.00
C146   C     0.08729   0.13884   0.68822   0.00000  Uiso   1.00
C147   C     0.96489   0.10278   0.66060   0.00000  Uiso   1.00
C148   C     0.29199   0.31002   0.72719   0.00000  Uiso   1.00
C149   C     0.35514   0.33273   0.69920   0.00000  Uiso   1.00
C150   C     0.36113   0.41269   0.68835   0.00000  Uiso   1.00
C151   C     0.39723   0.53513   0.66082   0.00000  Uiso   1.00
C152   C     0.17248   0.32738   0.77378   0.00000  Uiso   1.00
C153   C     0.21563   0.28415   0.81300   0.00000  Uiso   1.00
C154   C     0.20375   0.29593   0.86041   0.00000  Uiso   1.00
C155   C     0.24911   0.25051   0.89072   0.00000  Uiso   1.00
C156   C     0.13469   0.26313   0.74370   0.00000  Uiso   1.00
C157   C     0.05475   0.25725   0.73284   0.00000  Uiso   1.00
C158   C     0.03197   0.19413   0.70481   0.00000  Uiso   1.00
C159   C     0.23677   0.36522   0.74376   0.00000  Uiso   1.00
C160   C     0.24266   0.44516   0.73294   0.00000  Uiso   1.00
C161   C     0.30581   0.46799   0.70494   0.00000  Uiso   1.00
H162   H     0.31713   0.18279   0.73040   0.00000  Uiso   1.00
H163   H     0.35896   0.14079   0.81385   0.00000  Uiso   1.00
H164   H     0.20999   0.10212   0.68629   0.00000  Uiso   1.00
H165   H     0.39786   0.29000   0.68639   0.00000  Uiso   1.00
H166   H     0.38096   0.11855   0.91367   0.00000  Uiso   1.00
H167   H     0.06685   0.03702   0.64471   0.00000  Uiso   1.00
H168   H     0.46302   0.43321   0.64491   0.00000  Uiso   1.00
H169   H     0.12948   0.37035   0.78667   0.00000  Uiso   1.00
H170   H     0.16101   0.33865   0.87322   0.00000  Uiso   1.00
H171   H     0.01204   0.29997   0.74566   0.00000  Uiso   1.00
H172   H     0.19991   0.48786   0.74576   0.00000  Uiso   1.00
H173   H     0.22030   0.27914   0.96186   0.00000  Uiso   1.00
H174   H     0.90618   0.19761   0.69289   0.00000  Uiso   1.00
H175   H     0.30235   0.59379   0.69309   0.00000  Uiso   1.00
O176   O     0.32474   0.17459   0.99368   0.00000  Uiso   1.00
O177   O     0.91264   0.06763   0.64080   0.00000  Uiso   1.00
O178   O     0.43241   0.58741   0.64107   0.00000  Uiso   1.00
N179   N     0.33883   0.16071   0.91314   0.00000  Uiso   1.00
N180   N     0.04515   0.08448   0.66168   0.00000  Uiso   1.00
N181   N     0.41553   0.45487   0.66185   0.00000  Uiso   1.00
N182   N     0.25238   0.24712   0.93907   0.00000  Uiso   1.00
N183   N     0.95870   0.17089   0.68760   0.00000  Uiso   1.00
N184   N     0.32908   0.54128   0.68778   0.00000  Uiso   1.00
C185   C     0.22576   0.27414   0.25671   0.00000  Uiso   1.00
C186   C     0.22896   0.27085   0.20356   0.00000  Uiso   1.00
C187   C     0.18351   0.31623   0.17332   0.00000  Uiso   1.00
C188   C     0.19521   0.30443   0.12587   0.00000  Uiso   1.00
C189   C     0.19175   0.30769   0.04587   0.00000  Uiso   1.00
C190   C     0.20794   0.18991   0.27286   0.00000  Uiso   1.00
C191   C     0.14482   0.16724   0.30089   0.00000  Uiso   1.00
C192   C     0.13884   0.08729   0.31178   0.00000  Uiso   1.00
C193   C     0.10278   0.96489   0.33940   0.00000  Uiso   1.00
C194   C     0.31002   0.29199   0.27281   0.00000  Uiso   1.00
C195   C     0.33273   0.35514   0.30080   0.00000  Uiso   1.00
C196   C     0.41269   0.36113   0.31165   0.00000  Uiso   1.00
C197   C     0.53513   0.39723   0.33918   0.00000  Uiso   1.00
C198   C     0.32738   0.17248   0.22622   0.00000  Uiso   1.00
C199   C     0.28415   0.21563   0.18700   0.00000  Uiso   1.00
C200   C     0.29593   0.20375   0.13959   0.00000  Uiso   1.00
C201   C     0.25051   0.24911   0.10928   0.00000  Uiso   1.00
C202   C     0.26313   0.13469   0.25630   0.00000  Uiso   1.00
C203   C     0.25725   0.05475   0.26716   0.00000  Uiso   1.00
C204   C     0.19413   0.03197   0.29519   0.00000  Uiso   1.00
C205   C     0.36522   0.23677   0.25624   0.00000  Uiso   1.00
C206   C     0.44516   0.24266   0.26706   0.00000  Uiso   1.00
C207   C     0.46799   0.30581   0.29506   0.00000  Uiso   1.00
H208   H     0.18279   0.31713   0.26960   0.00000  Uiso   1.00
H209   H     0.14079   0.35896   0.18615   0.00000  Uiso   1.00
H210   H     0.10212   0.20999   0.31371   0.00000  Uiso   1.00
H211   H     0.29000   0.39786   0.31361   0.00000  Uiso   1.00
H212   H     0.11855   0.38096   0.08633   0.00000  Uiso   1.00
H213   H     0.03702   0.06685   0.35529   0.00000  Uiso   1.00
H214   H     0.43321   0.46302   0.35509   0.00000  Uiso   1.00
H215   H     0.37035   0.12948   0.21333   0.00000  Uiso   1.00
H216   H     0.33865   0.16101   0.12678   0.00000  Uiso   1.00
H217   H     0.29997   0.01204   0.25434   0.00000  Uiso   1.00
H218   H     0.48786   0.19991   0.25424   0.00000  Uiso   1.00
H219   H     0.27914   0.22030   0.03814   0.00000  Uiso   1.00
H220   H     0.19761   0.90618   0.30711   0.00000  Uiso   1.00
H221   H     0.59379   0.30235   0.30691   0.00000  Uiso   1.00
O222   O     0.17459   0.32474   0.00632   0.00000  Uiso   1.00
O223   O     0.06763   0.91264   0.35920   0.00000  Uiso   1.00
O224   O     0.58741   0.43241   0.35893   0.00000  Uiso   1.00
N225   N     0.16071   0.33883   0.08686   0.00000  Uiso   1.00
N226   N     0.08448   0.04515   0.33832   0.00000  Uiso   1.00
N227   N     0.45487   0.41553   0.33815   0.00000  Uiso   1.00
N228   N     0.24712   0.25238   0.06093   0.00000  Uiso   1.00
N229   N     0.17089   0.95870   0.31240   0.00000  Uiso   1.00
N230   N     0.54128   0.32908   0.31222   0.00000  Uiso   1.00
C231   C     0.77424   0.72586   0.25671   0.00000  Uiso   1.00
C232   C     0.77104   0.72915   0.20356   0.00000  Uiso   1.00
C233   C     0.81649   0.68377   0.17332   0.00000  Uiso   1.00
C234   C     0.80479   0.69557   0.12587   0.00000  Uiso   1.00
C235   C     0.80825   0.69231   0.04587   0.00000  Uiso   1.00
C236   C     0.79206   0.81009   0.27286   0.00000  Uiso   1.00
C237   C     0.85518   0.83276   0.30089   0.00000  Uiso   1.00
C238   C     0.86116   0.91271   0.31178   0.00000  Uiso   1.00
C239   C     0.89722   0.03511   0.33940   0.00000  Uiso   1.00
C240   C     0.68998   0.70801   0.27281   0.00000  Uiso   1.00
C241   C     0.66727   0.64486   0.30080   0.00000  Uiso   1.00
C242   C     0.58731   0.63887   0.31165   0.00000  Uiso   1.00
C243   C     0.46487   0.60277   0.33918   0.00000  Uiso   1.00
C244   C     0.67262   0.82752   0.22622   0.00000  Uiso   1.00
C245   C     0.71585   0.78437   0.18700   0.00000  Uiso   1.00
C246   C     0.70407   0.79625   0.13959   0.00000  Uiso   1.00
C247   C     0.74949   0.75089   0.10928   0.00000  Uiso   1.00
C248   C     0.73687   0.86531   0.25630   0.00000  Uiso   1.00
C249   C     0.74275   0.94525   0.26716   0.00000  Uiso   1.00
C250   C     0.80587   0.96803   0.29519   0.00000  Uiso   1.00
C251   C     0.63478   0.76323   0.25624   0.00000  Uiso   1.00
C252   C     0.55484   0.75734   0.26706   0.00000  Uiso   1.00
C253   C     0.53201   0.69419   0.29506   0.00000  Uiso   1.00
H254   H     0.81721   0.68287   0.26960   0.00000  Uiso   1.00
H255   H     0.85921   0.64104   0.18615   0.00000  Uiso   1.00
H256   H     0.89788   0.79001   0.31371   0.00000  Uiso   1.00
H257   H     0.71000   0.60214   0.31361   0.00000  Uiso   1.00
H258   H     0.88145   0.61904   0.08633   0.00000  Uiso   1.00
H259   H     0.96298   0.93315   0.35529   0.00000  Uiso   1.00
H260   H     0.56679   0.53698   0.35509   0.00000  Uiso   1.00
H261   H     0.62965   0.87052   0.21333   0.00000  Uiso   1.00
H262   H     0.66135   0.83899   0.12678   0.00000  Uiso   1.00
H263   H     0.70003   0.98796   0.25434   0.00000  Uiso   1.00
H264   H     0.51214   0.80009   0.25424   0.00000  Uiso   1.00
H265   H     0.72086   0.77970   0.03814   0.00000  Uiso   1.00
H266   H     0.80239   0.09382   0.30711   0.00000  Uiso   1.00
H267   H     0.40621   0.69765   0.30691   0.00000  Uiso   1.00
O268   O     0.82541   0.67526   0.00632   0.00000  Uiso   1.00
O269   O     0.93237   0.08736   0.35920   0.00000  Uiso   1.00
O270   O     0.41259   0.56759   0.35893   0.00000  Uiso   1.00
N271   N     0.83929   0.66117   0.08686   0.00000  Uiso   1.00
N272   N     0.91552   0.95485   0.33832   0.00000  Uiso   1.00
N273   N     0.54513   0.58447   0.33815   0.00000  Uiso   1.00
N274   N     0.75288   0.74762   0.06093   0.00000  Uiso   1.00
N275   N     0.82911   0.04130   0.31240   0.00000  Uiso   1.00
N276   N     0.45872   0.67092   0.31222   0.00000  Uiso   1.00
C277   C     0.77414   0.27424   0.75671   0.00000  Uiso   1.00
C278   C     0.77085   0.27104   0.70356   0.00000  Uiso   1.00
C279   C     0.81623   0.31649   0.67332   0.00000  Uiso   1.00
C280   C     0.80443   0.30479   0.62587   0.00000  Uiso   1.00
C281   C     0.80769   0.30825   0.54587   0.00000  Uiso   1.00
C282   C     0.68991   0.29206   0.77286   0.00000  Uiso   1.00
C283   C     0.66724   0.35518   0.80089   0.00000  Uiso   1.00
C284   C     0.58729   0.36116   0.81178   0.00000  Uiso   1.00
C285   C     0.46489   0.39722   0.83940   0.00000  Uiso   1.00
C286   C     0.79199   0.18998   0.77281   0.00000  Uiso   1.00
C287   C     0.85514   0.16727   0.80080   0.00000  Uiso   1.00
C288   C     0.86113   0.08731   0.81165   0.00000  Uiso   1.00
C289   C     0.89723   0.96487   0.83918   0.00000  Uiso   1.00
C290   C     0.67248   0.17262   0.72622   0.00000  Uiso   1.00
C291   C     0.71563   0.21585   0.68700   0.00000  Uiso   1.00
C292   C     0.70375   0.20407   0.63959   0.00000  Uiso   1.00
C293   C     0.74911   0.24949   0.60928   0.00000  Uiso   1.00
C294   C     0.63469   0.23687   0.75630   0.00000  Uiso   1.00
C295   C     0.55475   0.24275   0.76716   0.00000  Uiso   1.00
C296   C     0.53197   0.30587   0.79519   0.00000  Uiso   1.00
C297   C     0.73677   0.13478   0.75624   0.00000  Uiso   1.00
C298   C     0.74266   0.05484   0.76706   0.00000  Uiso   1.00
C299   C     0.80581   0.03201   0.79506   0.00000  Uiso   1.00
H300   H     0.81713   0.31721   0.76960   0.00000  Uiso   1.00
H301   H     0.85896   0.35921   0.68615   0.00000  Uiso   1.00
H302   H     0.70999   0.39788   0.81371   0.00000  Uiso   1.00
H303   H     0.89786   0.21000   0.81361   0.00000  Uiso   1.00
H304   H     0.88096   0.38145   0.58633   0.00000  Uiso   1.00
H305   H     0.56685   0.46298   0.85529   0.00000  Uiso   1.00
H306   H     0.96302   0.06679   0.85509   0.00000  Uiso   1.00
H307   H     0.62948   0.12965   0.71333   0.00000  Uiso   1.00
H308   H     0.66101   0.16135   0.62678   0.00000  Uiso   1.00
H309   H     0.51204   0.20003   0.75434   0.00000  Uiso   1.00
H310   H     0.69991   0.01214   0.75424   0.00000  Uiso   1.00
H311   H     0.72030   0.22086   0.53814   0.00000  Uiso   1.00
H312   H     0.40618   0.30239   0.80711   0.00000  Uiso   1.00
H313   H     0.80235   0.90621   0.80691   0.00000  Uiso   1.00
O314   O     0.82474   0.32541   0.50632   0.00000  Uiso   1.00
O315   O     0.41264   0.43237   0.85920   0.00000  Uiso   1.00
O316   O     0.93241   0.91259   0.85893   0.00000  Uiso   1.00
N317   N     0.83883   0.33929   0.58686   0.00000  Uiso   1.00
N318   N     0.54515   0.41552   0.83832   0.00000  Uiso   1.00
N319   N     0.91553   0.04513   0.83815   0.00000  Uiso   1.00
N320   N     0.75238   0.25288   0.56093   0.00000  Uiso   1.00
N321   N     0.45870   0.32911   0.81240   0.00000  Uiso   1.00
N322   N     0.82908   0.95872   0.81222   0.00000  Uiso   1.00
C323   C     0.22586   0.72576   0.75671   0.00000  Uiso   1.00
C324   C     0.22915   0.72896   0.70356   0.00000  Uiso   1.00
C325   C     0.18377   0.68351   0.67332   0.00000  Uiso   1.00
C326   C     0.19557   0.69521   0.62587   0.00000  Uiso   1.00
C327   C     0.19231   0.69175   0.54587   0.00000  Uiso   1.00
C328   C     0.31009   0.70794   0.77286   0.00000  Uiso   1.00
C329   C     0.33276   0.64482   0.80089   0.00000  Uiso   1.00
C330   C     0.41271   0.63884   0.81178   0.00000  Uiso   1.00
C331   C     0.53511   0.60278   0.83940   0.00000  Uiso   1.00
C332   C     0.20801   0.81002   0.77281   0.00000  Uiso   1.00
C333   C     0.14486   0.83273   0.80080   0.00000  Uiso   1.00
C334   C     0.13887   0.91269   0.81165   0.00000  Uiso   1.00
C335   C     0.10277   0.03513   0.83918   0.00000  Uiso   1.00
C336   C     0.32752   0.82738   0.72622   0.00000  Uiso   1.00
C337   C     0.28437   0.78415   0.68700   0.00000  Uiso   1.00
C338   C     0.29625   0.79593   0.63959   0.00000  Uiso   1.00
C339   C     0.25089   0.75051   0.60928   0.00000  Uiso   1.00
C340   C     0.36531   0.76313   0.75630   0.00000  Uiso   1.00
C341   C     0.44525   0.75725   0.76716   0.00000  Uiso   1.00
C342   C     0.46803   0.69413   0.79519   0.00000  Uiso   1.00
C343   C     0.26323   0.86522   0.75624   0.00000  Uiso   1.00
C344   C     0.25734   0.94516   0.76706   0.00000  Uiso   1.00
C345   C     0.19419   0.96799   0.79506   0.00000  Uiso   1.00
H346   H     0.18287   0.68279   0.76960   0.00000  Uiso   1.00
H347   H     0.14104   0.64079   0.68615   0.00000  Uiso   1.00
H348   H     0.29001   0.60212   0.81371   0.00000  Uiso   1.00
H349   H     0.10214   0.79000   0.81361   0.00000  Uiso   1.00
H350   H     0.11904   0.61855   0.58633   0.00000  Uiso   1.00
H351   H     0.43315   0.53702   0.85529   0.00000  Uiso   1.00
H352   H     0.03698   0.93321   0.85509   0.00000  Uiso   1.00
H353   H     0.37052   0.87035   0.71333   0.00000  Uiso   1.00
H354   H     0.33899   0.83865   0.62678   0.00000  Uiso   1.00
H355   H     0.48796   0.79997   0.75434   0.00000  Uiso   1.00
H356   H     0.30009   0.98786   0.75424   0.00000  Uiso   1.00
H357   H     0.27970   0.77914   0.53814   0.00000  Uiso   1.00
H358   H     0.59382   0.69761   0.80711   0.00000  Uiso   1.00
H359   H     0.19765   0.09379   0.80691   0.00000  Uiso   1.00
O360   O     0.17526   0.67459   0.50632   0.00000  Uiso   1.00
O361   O     0.58736   0.56763   0.85920   0.00000  Uiso   1.00
O362   O     0.06759   0.08741   0.85893   0.00000  Uiso   1.00
N363   N     0.16117   0.66071   0.58686   0.00000  Uiso   1.00
N364   N     0.45485   0.58448   0.83832   0.00000  Uiso   1.00
N365   N     0.08447   0.95487   0.83815   0.00000  Uiso   1.00
N366   N     0.24762   0.74712   0.56093   0.00000  Uiso   1.00
N367   N     0.54130   0.67089   0.81240   0.00000  Uiso   1.00
N368   N     0.17092   0.04128   0.81222   0.00000  Uiso   1.00
