data_job_02634
_audit_creation_date              2018-12-19
_audit_creation_method            'Materials Studio'
_symmetry_space_group_name_H-M    'P1'
_symmetry_Int_Tables_number       1
_symmetry_cell_setting            triclinic
loop_
_symmetry_equiv_pos_as_xyz
  x,y,z
_cell_length_a                    20.2321
_cell_length_b                    20.2321
_cell_length_c                    11.8975
_cell_angle_alpha                 90.0000
_cell_angle_beta                  90.0000
_cell_angle_gamma                 90.0000
loop_
_atom_site_label
_atom_site_type_symbol
_atom_site_fract_x
_atom_site_fract_y
_atom_site_fract_z
_atom_site_U_iso_or_equiv
_atom_site_adp_type
_atom_site_occupancy
C1     C     0.16300   0.56082   0.71547   0.00000  Uiso   1.00
C2     C     0.17589   0.61719   0.63328   0.00000  Uiso   1.00
C3     C     0.14153   0.67651   0.62911   0.00000  Uiso   1.00
C4     C     0.16085   0.72173   0.54772   0.00000  Uiso   1.00
C5     C     0.17296   0.81134   0.43139   0.00000  Uiso   1.00
C6     C     0.15009   0.49973   0.64366   0.00000  Uiso   1.00
C7     C     0.09404   0.46028   0.64824   0.00000  Uiso   1.00
C8     C     0.09164   0.40662   0.57560   0.00000  Uiso   1.00
C9     C     0.06372   0.31384   0.47545   0.00000  Uiso   1.00
C10    C     0.22840   0.54828   0.77550   0.00000  Uiso   1.00
C11    C     0.23819   0.54963   0.89093   0.00000  Uiso   1.00
C12    C     0.30172   0.53682   0.92930   0.00000  Uiso   1.00
C13    C     0.39539   0.51942   0.03384   0.00000  Uiso   1.00
C14    C     0.25842   0.53566   0.57835   0.00000  Uiso   1.00
C15    C     0.22772   0.60353   0.55879   0.00000  Uiso   1.00
C16    C     0.24710   0.64868   0.47740   0.00000  Uiso   1.00
C17    C     0.21277   0.70805   0.47311   0.00000  Uiso   1.00
C18    C     0.20192   0.48607   0.56918   0.00000  Uiso   1.00
C19    C     0.19961   0.43245   0.49653   0.00000  Uiso   1.00
C20    C     0.14357   0.39293   0.50099   0.00000  Uiso   1.00
C21    C     0.28023   0.53462   0.70102   0.00000  Uiso   1.00
C22    C     0.34376   0.52180   0.73921   0.00000  Uiso   1.00
C23    C     0.35365   0.52314   0.85468   0.00000  Uiso   1.00
H24    H     0.12265   0.57145   0.77346   0.00000  Uiso   1.00
H25    H     0.10142   0.68706   0.68676   0.00000  Uiso   1.00
H26    H     0.05394   0.47087   0.70589   0.00000  Uiso   1.00
H27    H     0.19807   0.56020   0.94854   0.00000  Uiso   1.00
H28    H     0.10072   0.80920   0.55776   0.00000  Uiso   1.00
H29    H     0.00062   0.35333   0.59814   0.00000  Uiso   1.00
H30    H     0.30455   0.54171   0.10982   0.00000  Uiso   1.00
H31    H     0.29877   0.52502   0.52036   0.00000  Uiso   1.00
H32    H     0.28721   0.63809   0.41977   0.00000  Uiso   1.00
H33    H     0.23973   0.42189   0.43891   0.00000  Uiso   1.00
H34    H     0.38386   0.51123   0.68155   0.00000  Uiso   1.00
H35    H     0.25151   0.76945   0.34106   0.00000  Uiso   1.00
H36    H     0.15141   0.31358   0.38144   0.00000  Uiso   1.00
H37    H     0.45534   0.50196   0.89312   0.00000  Uiso   1.00
O38    O     0.16532   0.86453   0.38778   0.00000  Uiso   1.00
O39    O     0.03400   0.26644   0.44078   0.00000  Uiso   1.00
O40    O     0.43274   0.51360   0.11208   0.00000  Uiso   1.00
N41    N     0.13781   0.78433   0.52058   0.00000  Uiso   1.00
N42    N     0.04421   0.35813   0.55832   0.00000  Uiso   1.00
N43    N     0.32835   0.53423   0.03670   0.00000  Uiso   1.00
N44    N     0.21895   0.76295   0.40398   0.00000  Uiso   1.00
N45    N     0.12536   0.33674   0.44172   0.00000  Uiso   1.00
N46    N     0.40949   0.51284   0.92009   0.00000  Uiso   1.00
C47    C     0.83700   0.43918   0.21547   0.00000  Uiso   1.00
C48    C     0.82411   0.38281   0.13328   0.00000  Uiso   1.00
C49    C     0.85847   0.32349   0.12911   0.00000  Uiso   1.00
C50    C     0.83915   0.27827   0.04772   0.00000  Uiso   1.00
C51    C     0.82704   0.18866   0.93139   0.00000  Uiso   1.00
C52    C     0.84991   0.50027   0.14366   0.00000  Uiso   1.00
C53    C     0.90596   0.53972   0.14824   0.00000  Uiso   1.00
C54    C     0.90836   0.59338   0.07560   0.00000  Uiso   1.00
C55    C     0.93628   0.68616   0.97545   0.00000  Uiso   1.00
C56    C     0.77160   0.45172   0.27550   0.00000  Uiso   1.00
C57    C     0.76181   0.45037   0.39093   0.00000  Uiso   1.00
C58    C     0.69828   0.46318   0.42930   0.00000  Uiso   1.00
C59    C     0.60461   0.48058   0.53384   0.00000  Uiso   1.00
C60    C     0.74158   0.46434   0.07835   0.00000  Uiso   1.00
C61    C     0.77228   0.39647   0.05879   0.00000  Uiso   1.00
C62    C     0.75290   0.35132   0.97740   0.00000  Uiso   1.00
C63    C     0.78723   0.29195   0.97311   0.00000  Uiso   1.00
C64    C     0.79808   0.51393   0.06918   0.00000  Uiso   1.00
C65    C     0.80039   0.56755   0.99653   0.00000  Uiso   1.00
C66    C     0.85643   0.60707   0.00099   0.00000  Uiso   1.00
C67    C     0.71977   0.46538   0.20102   0.00000  Uiso   1.00
C68    C     0.65624   0.47820   0.23921   0.00000  Uiso   1.00
C69    C     0.64635   0.47686   0.35468   0.00000  Uiso   1.00
H70    H     0.87735   0.42855   0.27346   0.00000  Uiso   1.00
H71    H     0.89858   0.31294   0.18676   0.00000  Uiso   1.00
H72    H     0.94606   0.52913   0.20589   0.00000  Uiso   1.00
H73    H     0.80193   0.43980   0.44854   0.00000  Uiso   1.00
H74    H     0.89928   0.19080   0.05776   0.00000  Uiso   1.00
H75    H     0.99938   0.64667   0.09814   0.00000  Uiso   1.00
H76    H     0.69545   0.45829   0.60982   0.00000  Uiso   1.00
H77    H     0.70123   0.47498   0.02036   0.00000  Uiso   1.00
H78    H     0.71279   0.36191   0.91977   0.00000  Uiso   1.00
H79    H     0.76027   0.57811   0.93891   0.00000  Uiso   1.00
H80    H     0.61614   0.48877   0.18155   0.00000  Uiso   1.00
H81    H     0.74849   0.23055   0.84106   0.00000  Uiso   1.00
H82    H     0.84859   0.68642   0.88144   0.00000  Uiso   1.00
H83    H     0.54466   0.49804   0.39312   0.00000  Uiso   1.00
O84    O     0.83468   0.13547   0.88778   0.00000  Uiso   1.00
O85    O     0.96600   0.73356   0.94078   0.00000  Uiso   1.00
O86    O     0.56726   0.48640   0.61208   0.00000  Uiso   1.00
N87    N     0.86219   0.21567   0.02058   0.00000  Uiso   1.00
N88    N     0.95579   0.64187   0.05832   0.00000  Uiso   1.00
N89    N     0.67165   0.46577   0.53670   0.00000  Uiso   1.00
N90    N     0.78105   0.23705   0.90398   0.00000  Uiso   1.00
N91    N     0.87464   0.66326   0.94172   0.00000  Uiso   1.00
N92    N     0.59051   0.48716   0.42009   0.00000  Uiso   1.00
C93    C     0.93918   0.66300   0.46547   0.00000  Uiso   1.00
C94    C     0.88281   0.67589   0.38328   0.00000  Uiso   1.00
C95    C     0.82349   0.64153   0.37911   0.00000  Uiso   1.00
C96    C     0.77827   0.66085   0.29772   0.00000  Uiso   1.00
C97    C     0.68866   0.67296   0.18139   0.00000  Uiso   1.00
C98    C     0.00027   0.65009   0.39366   0.00000  Uiso   1.00
C99    C     0.03972   0.59404   0.39824   0.00000  Uiso   1.00
C100   C     0.09338   0.59164   0.32560   0.00000  Uiso   1.00
C101   C     0.18616   0.56372   0.22545   0.00000  Uiso   1.00
C102   C     0.95172   0.72840   0.52550   0.00000  Uiso   1.00
C103   C     0.95037   0.73819   0.64093   0.00000  Uiso   1.00
C104   C     0.96318   0.80172   0.67930   0.00000  Uiso   1.00
C105   C     0.98058   0.89539   0.78384   0.00000  Uiso   1.00
C106   C     0.96434   0.75842   0.32835   0.00000  Uiso   1.00
C107   C     0.89647   0.72772   0.30879   0.00000  Uiso   1.00
C108   C     0.85132   0.74710   0.22740   0.00000  Uiso   1.00
C109   C     0.79195   0.71277   0.22311   0.00000  Uiso   1.00
C110   C     0.01393   0.70192   0.31918   0.00000  Uiso   1.00
C111   C     0.06755   0.69961   0.24653   0.00000  Uiso   1.00
C112   C     0.10707   0.64357   0.25099   0.00000  Uiso   1.00
C113   C     0.96538   0.78023   0.45102   0.00000  Uiso   1.00
C114   C     0.97820   0.84376   0.48921   0.00000  Uiso   1.00
C115   C     0.97686   0.85365   0.60468   0.00000  Uiso   1.00
H116   H     0.92855   0.62265   0.52346   0.00000  Uiso   1.00
H117   H     0.81294   0.60142   0.43676   0.00000  Uiso   1.00
H118   H     0.02913   0.55394   0.45589   0.00000  Uiso   1.00
H119   H     0.93980   0.69807   0.69854   0.00000  Uiso   1.00
H120   H     0.69080   0.60072   0.30776   0.00000  Uiso   1.00
H121   H     0.14667   0.50062   0.34814   0.00000  Uiso   1.00
H122   H     0.95829   0.80455   0.85982   0.00000  Uiso   1.00
H123   H     0.97498   0.79877   0.27036   0.00000  Uiso   1.00
H124   H     0.86191   0.78721   0.16977   0.00000  Uiso   1.00
H125   H     0.07811   0.73973   0.18891   0.00000  Uiso   1.00
H126   H     0.98877   0.88386   0.43155   0.00000  Uiso   1.00
H127   H     0.73055   0.75151   0.09106   0.00000  Uiso   1.00
H128   H     0.18642   0.65141   0.13144   0.00000  Uiso   1.00
H129   H     0.99804   0.95534   0.64312   0.00000  Uiso   1.00
O130   O     0.63547   0.66532   0.13778   0.00000  Uiso   1.00
O131   O     0.23356   0.53400   0.19078   0.00000  Uiso   1.00
O132   O     0.98640   0.93274   0.86208   0.00000  Uiso   1.00
N133   N     0.71567   0.63781   0.27058   0.00000  Uiso   1.00
N134   N     0.14187   0.54421   0.30832   0.00000  Uiso   1.00
N135   N     0.96577   0.82835   0.78670   0.00000  Uiso   1.00
N136   N     0.73705   0.71895   0.15398   0.00000  Uiso   1.00
N137   N     0.16326   0.62536   0.19172   0.00000  Uiso   1.00
N138   N     0.98716   0.90949   0.67009   0.00000  Uiso   1.00
C139   C     0.06082   0.33700   0.96547   0.00000  Uiso   1.00
C140   C     0.11719   0.32411   0.88328   0.00000  Uiso   1.00
C141   C     0.17651   0.35847   0.87911   0.00000  Uiso   1.00
C142   C     0.22173   0.33915   0.79772   0.00000  Uiso   1.00
C143   C     0.31134   0.32704   0.68139   0.00000  Uiso   1.00
C144   C     0.99973   0.34991   0.89366   0.00000  Uiso   1.00
C145   C     0.96028   0.40596   0.89824   0.00000  Uiso   1.00
C146   C     0.90662   0.40836   0.82560   0.00000  Uiso   1.00
C147   C     0.81384   0.43628   0.72545   0.00000  Uiso   1.00
C148   C     0.04828   0.27160   0.02550   0.00000  Uiso   1.00
C149   C     0.04963   0.26181   0.14093   0.00000  Uiso   1.00
C150   C     0.03682   0.19828   0.17930   0.00000  Uiso   1.00
C151   C     0.01942   0.10461   0.28384   0.00000  Uiso   1.00
C152   C     0.03566   0.24158   0.82835   0.00000  Uiso   1.00
C153   C     0.10353   0.27228   0.80879   0.00000  Uiso   1.00
C154   C     0.14868   0.25290   0.72740   0.00000  Uiso   1.00
C155   C     0.20805   0.28723   0.72311   0.00000  Uiso   1.00
C156   C     0.98607   0.29808   0.81918   0.00000  Uiso   1.00
C157   C     0.93245   0.30039   0.74653   0.00000  Uiso   1.00
C158   C     0.89293   0.35643   0.75099   0.00000  Uiso   1.00
C159   C     0.03462   0.21977   0.95102   0.00000  Uiso   1.00
C160   C     0.02180   0.15624   0.98921   0.00000  Uiso   1.00
C161   C     0.02314   0.14635   0.10468   0.00000  Uiso   1.00
H162   H     0.07145   0.37735   0.02346   0.00000  Uiso   1.00
H163   H     0.18706   0.39858   0.93676   0.00000  Uiso   1.00
H164   H     0.97087   0.44606   0.95589   0.00000  Uiso   1.00
H165   H     0.06020   0.30193   0.19854   0.00000  Uiso   1.00
H166   H     0.30920   0.39928   0.80776   0.00000  Uiso   1.00
H167   H     0.85333   0.49938   0.84814   0.00000  Uiso   1.00
H168   H     0.04171   0.19545   0.35982   0.00000  Uiso   1.00
H169   H     0.02502   0.20123   0.77036   0.00000  Uiso   1.00
H170   H     0.13809   0.21279   0.66977   0.00000  Uiso   1.00
H171   H     0.92189   0.26027   0.68891   0.00000  Uiso   1.00
H172   H     0.01123   0.11614   0.93155   0.00000  Uiso   1.00
H173   H     0.26945   0.24849   0.59106   0.00000  Uiso   1.00
H174   H     0.81358   0.34859   0.63144   0.00000  Uiso   1.00
H175   H     0.00196   0.04466   0.14312   0.00000  Uiso   1.00
O176   O     0.36453   0.33468   0.63778   0.00000  Uiso   1.00
O177   O     0.76644   0.46600   0.69078   0.00000  Uiso   1.00
O178   O     0.01360   0.06726   0.36208   0.00000  Uiso   1.00
N179   N     0.28433   0.36219   0.77058   0.00000  Uiso   1.00
N180   N     0.85813   0.45579   0.80832   0.00000  Uiso   1.00
N181   N     0.03423   0.17165   0.28670   0.00000  Uiso   1.00
N182   N     0.26295   0.28105   0.65398   0.00000  Uiso   1.00
N183   N     0.83674   0.37464   0.69172   0.00000  Uiso   1.00
N184   N     0.01284   0.09051   0.17009   0.00000  Uiso   1.00
C185   C     0.33700   0.06082   0.03453   0.00000  Uiso   1.00
C186   C     0.32411   0.11719   0.11672   0.00000  Uiso   1.00
C187   C     0.35847   0.17651   0.12089   0.00000  Uiso   1.00
C188   C     0.33915   0.22173   0.20228   0.00000  Uiso   1.00
C189   C     0.32704   0.31134   0.31861   0.00000  Uiso   1.00
C190   C     0.34991   0.99973   0.10634   0.00000  Uiso   1.00
C191   C     0.40596   0.96028   0.10176   0.00000  Uiso   1.00
C192   C     0.40836   0.90662   0.17440   0.00000  Uiso   1.00
C193   C     0.43628   0.81384   0.27455   0.00000  Uiso   1.00
C194   C     0.27160   0.04828   0.97450   0.00000  Uiso   1.00
C195   C     0.26181   0.04963   0.85907   0.00000  Uiso   1.00
C196   C     0.19828   0.03682   0.82070   0.00000  Uiso   1.00
C197   C     0.10461   0.01942   0.71616   0.00000  Uiso   1.00
C198   C     0.24158   0.03566   0.17165   0.00000  Uiso   1.00
C199   C     0.27228   0.10353   0.19121   0.00000  Uiso   1.00
C200   C     0.25290   0.14868   0.27260   0.00000  Uiso   1.00
C201   C     0.28723   0.20805   0.27689   0.00000  Uiso   1.00
C202   C     0.29808   0.98607   0.18082   0.00000  Uiso   1.00
C203   C     0.30039   0.93245   0.25347   0.00000  Uiso   1.00
C204   C     0.35643   0.89293   0.24901   0.00000  Uiso   1.00
C205   C     0.21977   0.03462   0.04898   0.00000  Uiso   1.00
C206   C     0.15624   0.02180   0.01079   0.00000  Uiso   1.00
C207   C     0.14635   0.02314   0.89532   0.00000  Uiso   1.00
H208   H     0.37735   0.07145   0.97654   0.00000  Uiso   1.00
H209   H     0.39858   0.18706   0.06324   0.00000  Uiso   1.00
H210   H     0.44606   0.97087   0.04411   0.00000  Uiso   1.00
H211   H     0.30193   0.06020   0.80146   0.00000  Uiso   1.00
H212   H     0.39928   0.30920   0.19224   0.00000  Uiso   1.00
H213   H     0.49938   0.85333   0.15186   0.00000  Uiso   1.00
H214   H     0.19545   0.04171   0.64018   0.00000  Uiso   1.00
H215   H     0.20123   0.02502   0.22964   0.00000  Uiso   1.00
H216   H     0.21279   0.13809   0.33023   0.00000  Uiso   1.00
H217   H     0.26027   0.92189   0.31109   0.00000  Uiso   1.00
H218   H     0.11614   0.01123   0.06845   0.00000  Uiso   1.00
H219   H     0.24849   0.26945   0.40894   0.00000  Uiso   1.00
H220   H     0.34859   0.81358   0.36856   0.00000  Uiso   1.00
H221   H     0.04466   0.00196   0.85688   0.00000  Uiso   1.00
O222   O     0.33468   0.36453   0.36222   0.00000  Uiso   1.00
O223   O     0.46600   0.76644   0.30922   0.00000  Uiso   1.00
O224   O     0.06726   0.01360   0.63792   0.00000  Uiso   1.00
N225   N     0.36219   0.28433   0.22942   0.00000  Uiso   1.00
N226   N     0.45579   0.85813   0.19168   0.00000  Uiso   1.00
N227   N     0.17165   0.03423   0.71330   0.00000  Uiso   1.00
N228   N     0.28105   0.26295   0.34602   0.00000  Uiso   1.00
N229   N     0.37464   0.83674   0.30828   0.00000  Uiso   1.00
N230   N     0.09051   0.01284   0.82991   0.00000  Uiso   1.00
C231   C     0.66300   0.93918   0.53453   0.00000  Uiso   1.00
C232   C     0.67589   0.88281   0.61672   0.00000  Uiso   1.00
C233   C     0.64153   0.82349   0.62089   0.00000  Uiso   1.00
C234   C     0.66085   0.77827   0.70228   0.00000  Uiso   1.00
C235   C     0.67296   0.68866   0.81861   0.00000  Uiso   1.00
C236   C     0.65009   0.00027   0.60634   0.00000  Uiso   1.00
C237   C     0.59404   0.03972   0.60176   0.00000  Uiso   1.00
C238   C     0.59164   0.09338   0.67440   0.00000  Uiso   1.00
C239   C     0.56372   0.18616   0.77455   0.00000  Uiso   1.00
C240   C     0.72840   0.95172   0.47450   0.00000  Uiso   1.00
C241   C     0.73819   0.95037   0.35907   0.00000  Uiso   1.00
C242   C     0.80172   0.96318   0.32070   0.00000  Uiso   1.00
C243   C     0.89539   0.98058   0.21616   0.00000  Uiso   1.00
C244   C     0.75842   0.96434   0.67165   0.00000  Uiso   1.00
C245   C     0.72772   0.89647   0.69121   0.00000  Uiso   1.00
C246   C     0.74710   0.85132   0.77260   0.00000  Uiso   1.00
C247   C     0.71277   0.79195   0.77689   0.00000  Uiso   1.00
C248   C     0.70192   0.01393   0.68082   0.00000  Uiso   1.00
C249   C     0.69961   0.06755   0.75347   0.00000  Uiso   1.00
C250   C     0.64357   0.10707   0.74901   0.00000  Uiso   1.00
C251   C     0.78023   0.96538   0.54898   0.00000  Uiso   1.00
C252   C     0.84376   0.97820   0.51079   0.00000  Uiso   1.00
C253   C     0.85365   0.97686   0.39532   0.00000  Uiso   1.00
H254   H     0.62265   0.92855   0.47654   0.00000  Uiso   1.00
H255   H     0.60142   0.81294   0.56324   0.00000  Uiso   1.00
H256   H     0.55394   0.02913   0.54411   0.00000  Uiso   1.00
H257   H     0.69807   0.93980   0.30146   0.00000  Uiso   1.00
H258   H     0.60072   0.69080   0.69224   0.00000  Uiso   1.00
H259   H     0.50062   0.14667   0.65186   0.00000  Uiso   1.00
H260   H     0.80455   0.95829   0.14018   0.00000  Uiso   1.00
H261   H     0.79877   0.97498   0.72964   0.00000  Uiso   1.00
H262   H     0.78721   0.86191   0.83023   0.00000  Uiso   1.00
H263   H     0.73973   0.07811   0.81109   0.00000  Uiso   1.00
H264   H     0.88386   0.98877   0.56845   0.00000  Uiso   1.00
H265   H     0.75151   0.73055   0.90894   0.00000  Uiso   1.00
H266   H     0.65141   0.18642   0.86856   0.00000  Uiso   1.00
H267   H     0.95534   0.99804   0.35688   0.00000  Uiso   1.00
O268   O     0.66532   0.63547   0.86222   0.00000  Uiso   1.00
O269   O     0.53400   0.23356   0.80922   0.00000  Uiso   1.00
O270   O     0.93274   0.98640   0.13792   0.00000  Uiso   1.00
N271   N     0.63781   0.71567   0.72942   0.00000  Uiso   1.00
N272   N     0.54421   0.14187   0.69168   0.00000  Uiso   1.00
N273   N     0.82835   0.96577   0.21330   0.00000  Uiso   1.00
N274   N     0.71895   0.73705   0.84602   0.00000  Uiso   1.00
N275   N     0.62536   0.16326   0.80828   0.00000  Uiso   1.00
N276   N     0.90949   0.98716   0.32991   0.00000  Uiso   1.00
C277   C     0.56082   0.16300   0.28453   0.00000  Uiso   1.00
C278   C     0.61719   0.17589   0.36672   0.00000  Uiso   1.00
C279   C     0.67651   0.14153   0.37089   0.00000  Uiso   1.00
C280   C     0.72173   0.16085   0.45228   0.00000  Uiso   1.00
C281   C     0.81134   0.17296   0.56861   0.00000  Uiso   1.00
C282   C     0.49973   0.15009   0.35634   0.00000  Uiso   1.00
C283   C     0.46028   0.09404   0.35176   0.00000  Uiso   1.00
C284   C     0.40662   0.09164   0.42440   0.00000  Uiso   1.00
C285   C     0.31384   0.06372   0.52455   0.00000  Uiso   1.00
C286   C     0.54828   0.22840   0.22450   0.00000  Uiso   1.00
C287   C     0.54963   0.23819   0.10907   0.00000  Uiso   1.00
C288   C     0.53682   0.30172   0.07070   0.00000  Uiso   1.00
C289   C     0.51942   0.39539   0.96616   0.00000  Uiso   1.00
C290   C     0.53566   0.25842   0.42165   0.00000  Uiso   1.00
C291   C     0.60353   0.22772   0.44121   0.00000  Uiso   1.00
C292   C     0.64868   0.24710   0.52260   0.00000  Uiso   1.00
C293   C     0.70805   0.21277   0.52689   0.00000  Uiso   1.00
C294   C     0.48607   0.20192   0.43082   0.00000  Uiso   1.00
C295   C     0.43245   0.19961   0.50347   0.00000  Uiso   1.00
C296   C     0.39293   0.14357   0.49901   0.00000  Uiso   1.00
C297   C     0.53462   0.28023   0.29898   0.00000  Uiso   1.00
C298   C     0.52180   0.34376   0.26079   0.00000  Uiso   1.00
C299   C     0.52314   0.35365   0.14532   0.00000  Uiso   1.00
H300   H     0.57145   0.12265   0.22654   0.00000  Uiso   1.00
H301   H     0.68706   0.10142   0.31324   0.00000  Uiso   1.00
H302   H     0.47087   0.05394   0.29411   0.00000  Uiso   1.00
H303   H     0.56020   0.19807   0.05146   0.00000  Uiso   1.00
H304   H     0.80920   0.10072   0.44224   0.00000  Uiso   1.00
H305   H     0.35333   0.00062   0.40186   0.00000  Uiso   1.00
H306   H     0.54171   0.30455   0.89018   0.00000  Uiso   1.00
H307   H     0.52502   0.29877   0.47964   0.00000  Uiso   1.00
H308   H     0.63809   0.28721   0.58023   0.00000  Uiso   1.00
H309   H     0.42189   0.23973   0.56109   0.00000  Uiso   1.00
H310   H     0.51123   0.38386   0.31845   0.00000  Uiso   1.00
H311   H     0.76945   0.25151   0.65894   0.00000  Uiso   1.00
H312   H     0.31358   0.15141   0.61856   0.00000  Uiso   1.00
H313   H     0.50196   0.45534   0.10688   0.00000  Uiso   1.00
O314   O     0.86453   0.16532   0.61222   0.00000  Uiso   1.00
O315   O     0.26644   0.03400   0.55922   0.00000  Uiso   1.00
O316   O     0.51360   0.43274   0.88792   0.00000  Uiso   1.00
N317   N     0.78433   0.13781   0.47942   0.00000  Uiso   1.00
N318   N     0.35813   0.04421   0.44168   0.00000  Uiso   1.00
N319   N     0.53423   0.32835   0.96330   0.00000  Uiso   1.00
N320   N     0.76295   0.21895   0.59602   0.00000  Uiso   1.00
N321   N     0.33674   0.12536   0.55828   0.00000  Uiso   1.00
N322   N     0.51284   0.40949   0.07991   0.00000  Uiso   1.00
C323   C     0.43918   0.83700   0.78453   0.00000  Uiso   1.00
C324   C     0.38281   0.82411   0.86672   0.00000  Uiso   1.00
C325   C     0.32349   0.85847   0.87089   0.00000  Uiso   1.00
C326   C     0.27827   0.83915   0.95228   0.00000  Uiso   1.00
C327   C     0.18866   0.82704   0.06861   0.00000  Uiso   1.00
C328   C     0.50027   0.84991   0.85634   0.00000  Uiso   1.00
C329   C     0.53972   0.90596   0.85176   0.00000  Uiso   1.00
C330   C     0.59338   0.90836   0.92440   0.00000  Uiso   1.00
C331   C     0.68616   0.93628   0.02455   0.00000  Uiso   1.00
C332   C     0.45172   0.77160   0.72450   0.00000  Uiso   1.00
C333   C     0.45037   0.76181   0.60907   0.00000  Uiso   1.00
C334   C     0.46318   0.69828   0.57070   0.00000  Uiso   1.00
C335   C     0.48058   0.60461   0.46616   0.00000  Uiso   1.00
C336   C     0.46434   0.74158   0.92165   0.00000  Uiso   1.00
C337   C     0.39647   0.77228   0.94121   0.00000  Uiso   1.00
C338   C     0.35132   0.75290   0.02260   0.00000  Uiso   1.00
C339   C     0.29195   0.78723   0.02689   0.00000  Uiso   1.00
C340   C     0.51393   0.79808   0.93082   0.00000  Uiso   1.00
C341   C     0.56755   0.80039   0.00347   0.00000  Uiso   1.00
C342   C     0.60707   0.85643   0.99901   0.00000  Uiso   1.00
C343   C     0.46538   0.71977   0.79898   0.00000  Uiso   1.00
C344   C     0.47820   0.65624   0.76079   0.00000  Uiso   1.00
C345   C     0.47686   0.64635   0.64532   0.00000  Uiso   1.00
H346   H     0.42855   0.87735   0.72654   0.00000  Uiso   1.00
H347   H     0.31294   0.89858   0.81324   0.00000  Uiso   1.00
H348   H     0.52913   0.94606   0.79411   0.00000  Uiso   1.00
H349   H     0.43980   0.80193   0.55146   0.00000  Uiso   1.00
H350   H     0.19080   0.89928   0.94224   0.00000  Uiso   1.00
H351   H     0.64667   0.99938   0.90186   0.00000  Uiso   1.00
H352   H     0.45829   0.69545   0.39018   0.00000  Uiso   1.00
H353   H     0.47498   0.70123   0.97964   0.00000  Uiso   1.00
H354   H     0.36191   0.71279   0.08023   0.00000  Uiso   1.00
H355   H     0.57811   0.76027   0.06109   0.00000  Uiso   1.00
H356   H     0.48877   0.61614   0.81845   0.00000  Uiso   1.00
H357   H     0.23055   0.74849   0.15894   0.00000  Uiso   1.00
H358   H     0.68642   0.84859   0.11856   0.00000  Uiso   1.00
H359   H     0.49804   0.54466   0.60688   0.00000  Uiso   1.00
O360   O     0.13547   0.83468   0.11222   0.00000  Uiso   1.00
O361   O     0.73356   0.96600   0.05922   0.00000  Uiso   1.00
O362   O     0.48640   0.56726   0.38792   0.00000  Uiso   1.00
N363   N     0.21567   0.86219   0.97942   0.00000  Uiso   1.00
N364   N     0.64187   0.95579   0.94168   0.00000  Uiso   1.00
N365   N     0.46577   0.67165   0.46330   0.00000  Uiso   1.00
N366   N     0.23705   0.78105   0.09602   0.00000  Uiso   1.00
N367   N     0.66326   0.87464   0.05828   0.00000  Uiso   1.00
N368   N     0.48716   0.59051   0.57991   0.00000  Uiso   1.00
