data_job_02362
_audit_creation_date              2018-12-19
_audit_creation_method            'Materials Studio'
_symmetry_space_group_name_H-M    'P1'
_symmetry_Int_Tables_number       1
_symmetry_cell_setting            triclinic
loop_
_symmetry_equiv_pos_as_xyz
  x,y,z
_cell_length_a                    20.6597
_cell_length_b                    41.5989
_cell_length_c                    14.9806
_cell_angle_alpha                 90.0000
_cell_angle_beta                  83.4846
_cell_angle_gamma                 90.0000
loop_
_atom_site_label
_atom_site_type_symbol
_atom_site_fract_x
_atom_site_fract_y
_atom_site_fract_z
_atom_site_U_iso_or_equiv
_atom_site_adp_type
_atom_site_occupancy
C1     C     0.05584   0.17206   0.09073   0.00000  Uiso   1.00
C2     C     0.99273   0.18893   0.07439   0.00000  Uiso   1.00
C3     C     0.95549   0.20845   0.13536   0.00000  Uiso   1.00
C4     C     0.89938   0.22166   0.10761   0.00000  Uiso   1.00
C5     C     0.80413   0.24878   0.09530   0.00000  Uiso   1.00
C6     C     0.04489   0.13640   0.07411   0.00000  Uiso   1.00
C7     C     0.05152   0.11175   0.13485   0.00000  Uiso   1.00
C8     C     0.03933   0.08074   0.10685   0.00000  Uiso   1.00
C9     C     0.02510   0.02631   0.09408   0.00000  Uiso   1.00
C10    C     0.10700   0.18311   0.01561   0.00000  Uiso   1.00
C11    C     0.16586   0.19773   0.02714   0.00000  Uiso   1.00
C12    C     0.20597   0.20604   0.94989   0.00000  Uiso   1.00
C13    C     0.28818   0.22413   0.84627   0.00000  Uiso   1.00
C14    C     0.02242   0.16080   0.93302   0.00000  Uiso   1.00
C15    C     0.97458   0.18282   0.98873   0.00000  Uiso   1.00
C16    C     0.91851   0.19600   0.96088   0.00000  Uiso   1.00
C17    C     0.88120   0.21554   0.02180   0.00000  Uiso   1.00
C18    C     0.02674   0.13029   0.98846   0.00000  Uiso   1.00
C19    C     0.01454   0.09931   0.96036   0.00000  Uiso   1.00
C20    C     0.02114   0.07462   0.02104   0.00000  Uiso   1.00
C21    C     0.08885   0.17700   0.92994   0.00000  Uiso   1.00
C22    C     0.12888   0.18528   0.85266   0.00000  Uiso   1.00
C23    C     0.18779   0.19991   0.86407   0.00000  Uiso   1.00
H24    H     0.06997   0.17681   0.15742   0.00000  Uiso   1.00
H25    H     0.96955   0.21317   0.20165   0.00000  Uiso   1.00
H26    H     0.06557   0.11649   0.20113   0.00000  Uiso   1.00
H27    H     0.17989   0.20246   0.09344   0.00000  Uiso   1.00
H28    H     0.85020   0.25078   0.21293   0.00000  Uiso   1.00
H29    H     0.05268   0.04692   0.21181   0.00000  Uiso   1.00
H30    H     0.29375   0.22820   0.98473   0.00000  Uiso   1.00
H31    H     0.00829   0.15604   0.86633   0.00000  Uiso   1.00
H32    H     0.90448   0.19127   0.89459   0.00000  Uiso   1.00
H33    H     0.00050   0.09459   0.89407   0.00000  Uiso   1.00
H34    H     0.11482   0.18055   0.78638   0.00000  Uiso   1.00
H35    H     0.79738   0.23300   0.96371   0.00000  Uiso   1.00
H36    H     0.99986   0.02914   0.96259   0.00000  Uiso   1.00
H37    H     0.24093   0.21042   0.73551   0.00000  Uiso   1.00
O38    O     0.75660   0.26543   0.11217   0.00000  Uiso   1.00
O39    O     0.02226   0.99797   0.11070   0.00000  Uiso   1.00
O40    O     0.33854   0.23580   0.81278   0.00000  Uiso   1.00
N41    N     0.85202   0.24177   0.15039   0.00000  Uiso   1.00
N42    N     0.04132   0.05117   0.14935   0.00000  Uiso   1.00
N43    N     0.26671   0.22064   0.93705   0.00000  Uiso   1.00
N44    N     0.82360   0.23220   0.01628   0.00000  Uiso   1.00
N45    N     0.01290   0.04161   0.01525   0.00000  Uiso   1.00
N46    N     0.23829   0.21107   0.80295   0.00000  Uiso   1.00
C47    C     0.55584   0.67206   0.09073   0.00000  Uiso   1.00
C48    C     0.49273   0.68893   0.07439   0.00000  Uiso   1.00
C49    C     0.45549   0.70845   0.13536   0.00000  Uiso   1.00
C50    C     0.39938   0.72166   0.10761   0.00000  Uiso   1.00
C51    C     0.30413   0.74878   0.09530   0.00000  Uiso   1.00
C52    C     0.54489   0.63640   0.07411   0.00000  Uiso   1.00
C53    C     0.55152   0.61175   0.13485   0.00000  Uiso   1.00
C54    C     0.53933   0.58074   0.10685   0.00000  Uiso   1.00
C55    C     0.52510   0.52631   0.09408   0.00000  Uiso   1.00
C56    C     0.60700   0.68311   0.01561   0.00000  Uiso   1.00
C57    C     0.66586   0.69773   0.02714   0.00000  Uiso   1.00
C58    C     0.70597   0.70604   0.94989   0.00000  Uiso   1.00
C59    C     0.78818   0.72413   0.84627   0.00000  Uiso   1.00
C60    C     0.52242   0.66080   0.93302   0.00000  Uiso   1.00
C61    C     0.47458   0.68282   0.98873   0.00000  Uiso   1.00
C62    C     0.41851   0.69600   0.96088   0.00000  Uiso   1.00
C63    C     0.38120   0.71554   0.02180   0.00000  Uiso   1.00
C64    C     0.52674   0.63029   0.98846   0.00000  Uiso   1.00
C65    C     0.51454   0.59931   0.96036   0.00000  Uiso   1.00
C66    C     0.52114   0.57462   0.02104   0.00000  Uiso   1.00
C67    C     0.58885   0.67700   0.92994   0.00000  Uiso   1.00
C68    C     0.62888   0.68528   0.85266   0.00000  Uiso   1.00
C69    C     0.68779   0.69991   0.86407   0.00000  Uiso   1.00
H70    H     0.56997   0.67681   0.15742   0.00000  Uiso   1.00
H71    H     0.46955   0.71317   0.20165   0.00000  Uiso   1.00
H72    H     0.56557   0.61649   0.20113   0.00000  Uiso   1.00
H73    H     0.67989   0.70246   0.09344   0.00000  Uiso   1.00
H74    H     0.35020   0.75078   0.21293   0.00000  Uiso   1.00
H75    H     0.55268   0.54692   0.21181   0.00000  Uiso   1.00
H76    H     0.79375   0.72820   0.98473   0.00000  Uiso   1.00
H77    H     0.50829   0.65604   0.86633   0.00000  Uiso   1.00
H78    H     0.40448   0.69127   0.89459   0.00000  Uiso   1.00
H79    H     0.50050   0.59459   0.89407   0.00000  Uiso   1.00
H80    H     0.61482   0.68055   0.78638   0.00000  Uiso   1.00
H81    H     0.29738   0.73300   0.96371   0.00000  Uiso   1.00
H82    H     0.49986   0.52914   0.96259   0.00000  Uiso   1.00
H83    H     0.74093   0.71042   0.73551   0.00000  Uiso   1.00
O84    O     0.25660   0.76543   0.11217   0.00000  Uiso   1.00
O85    O     0.52226   0.49797   0.11070   0.00000  Uiso   1.00
O86    O     0.83854   0.73580   0.81278   0.00000  Uiso   1.00
N87    N     0.35202   0.74177   0.15039   0.00000  Uiso   1.00
N88    N     0.54132   0.55117   0.14935   0.00000  Uiso   1.00
N89    N     0.76671   0.72064   0.93705   0.00000  Uiso   1.00
N90    N     0.32360   0.73220   0.01628   0.00000  Uiso   1.00
N91    N     0.51290   0.54161   0.01525   0.00000  Uiso   1.00
N92    N     0.73829   0.71107   0.80295   0.00000  Uiso   1.00
C93    C     0.94416   0.17206   0.40927   0.00000  Uiso   1.00
C94    C     0.00727   0.18893   0.42561   0.00000  Uiso   1.00
C95    C     0.04451   0.20845   0.36464   0.00000  Uiso   1.00
C96    C     0.10062   0.22166   0.39239   0.00000  Uiso   1.00
C97    C     0.19587   0.24878   0.40470   0.00000  Uiso   1.00
C98    C     0.95511   0.13640   0.42589   0.00000  Uiso   1.00
C99    C     0.94848   0.11175   0.36515   0.00000  Uiso   1.00
C100   C     0.96067   0.08074   0.39315   0.00000  Uiso   1.00
C101   C     0.97490   0.02631   0.40592   0.00000  Uiso   1.00
C102   C     0.89300   0.18311   0.48439   0.00000  Uiso   1.00
C103   C     0.83414   0.19773   0.47286   0.00000  Uiso   1.00
C104   C     0.79403   0.20604   0.55011   0.00000  Uiso   1.00
C105   C     0.71182   0.22413   0.65373   0.00000  Uiso   1.00
C106   C     0.97758   0.16080   0.56698   0.00000  Uiso   1.00
C107   C     0.02542   0.18282   0.51127   0.00000  Uiso   1.00
C108   C     0.08149   0.19600   0.53912   0.00000  Uiso   1.00
C109   C     0.11880   0.21554   0.47820   0.00000  Uiso   1.00
C110   C     0.97326   0.13029   0.51154   0.00000  Uiso   1.00
C111   C     0.98546   0.09931   0.53964   0.00000  Uiso   1.00
C112   C     0.97886   0.07462   0.47896   0.00000  Uiso   1.00
C113   C     0.91115   0.17700   0.57006   0.00000  Uiso   1.00
C114   C     0.87112   0.18528   0.64734   0.00000  Uiso   1.00
C115   C     0.81221   0.19991   0.63593   0.00000  Uiso   1.00
H116   H     0.93003   0.17681   0.34258   0.00000  Uiso   1.00
H117   H     0.03045   0.21317   0.29835   0.00000  Uiso   1.00
H118   H     0.93443   0.11649   0.29887   0.00000  Uiso   1.00
H119   H     0.82011   0.20246   0.40656   0.00000  Uiso   1.00
H120   H     0.14980   0.25078   0.28707   0.00000  Uiso   1.00
H121   H     0.94732   0.04692   0.28819   0.00000  Uiso   1.00
H122   H     0.70625   0.22820   0.51527   0.00000  Uiso   1.00
H123   H     0.99171   0.15604   0.63367   0.00000  Uiso   1.00
H124   H     0.09552   0.19127   0.60541   0.00000  Uiso   1.00
H125   H     0.99950   0.09459   0.60593   0.00000  Uiso   1.00
H126   H     0.88518   0.18055   0.71362   0.00000  Uiso   1.00
H127   H     0.20262   0.23300   0.53629   0.00000  Uiso   1.00
H128   H     0.00014   0.02914   0.53741   0.00000  Uiso   1.00
H129   H     0.75907   0.21042   0.76449   0.00000  Uiso   1.00
O130   O     0.24340   0.26543   0.38783   0.00000  Uiso   1.00
O131   O     0.97774   0.99797   0.38930   0.00000  Uiso   1.00
O132   O     0.66146   0.23580   0.68722   0.00000  Uiso   1.00
N133   N     0.14798   0.24177   0.34961   0.00000  Uiso   1.00
N134   N     0.95868   0.05117   0.35065   0.00000  Uiso   1.00
N135   N     0.73329   0.22064   0.56295   0.00000  Uiso   1.00
N136   N     0.17640   0.23220   0.48372   0.00000  Uiso   1.00
N137   N     0.98710   0.04161   0.48475   0.00000  Uiso   1.00
N138   N     0.76171   0.21107   0.69705   0.00000  Uiso   1.00
C139   C     0.44416   0.67206   0.40927   0.00000  Uiso   1.00
C140   C     0.50727   0.68893   0.42561   0.00000  Uiso   1.00
C141   C     0.54451   0.70845   0.36464   0.00000  Uiso   1.00
C142   C     0.60062   0.72166   0.39239   0.00000  Uiso   1.00
C143   C     0.69587   0.74878   0.40470   0.00000  Uiso   1.00
C144   C     0.45511   0.63640   0.42589   0.00000  Uiso   1.00
C145   C     0.44848   0.61175   0.36515   0.00000  Uiso   1.00
C146   C     0.46067   0.58074   0.39315   0.00000  Uiso   1.00
C147   C     0.47490   0.52631   0.40592   0.00000  Uiso   1.00
C148   C     0.39300   0.68311   0.48439   0.00000  Uiso   1.00
C149   C     0.33414   0.69773   0.47286   0.00000  Uiso   1.00
C150   C     0.29403   0.70604   0.55011   0.00000  Uiso   1.00
C151   C     0.21182   0.72413   0.65373   0.00000  Uiso   1.00
C152   C     0.47758   0.66080   0.56698   0.00000  Uiso   1.00
C153   C     0.52542   0.68282   0.51127   0.00000  Uiso   1.00
C154   C     0.58149   0.69600   0.53912   0.00000  Uiso   1.00
C155   C     0.61880   0.71554   0.47820   0.00000  Uiso   1.00
C156   C     0.47326   0.63029   0.51154   0.00000  Uiso   1.00
C157   C     0.48546   0.59931   0.53964   0.00000  Uiso   1.00
C158   C     0.47886   0.57462   0.47896   0.00000  Uiso   1.00
C159   C     0.41115   0.67700   0.57006   0.00000  Uiso   1.00
C160   C     0.37112   0.68528   0.64734   0.00000  Uiso   1.00
C161   C     0.31221   0.69991   0.63593   0.00000  Uiso   1.00
H162   H     0.43003   0.67681   0.34258   0.00000  Uiso   1.00
H163   H     0.53045   0.71317   0.29835   0.00000  Uiso   1.00
H164   H     0.43443   0.61649   0.29887   0.00000  Uiso   1.00
H165   H     0.32011   0.70246   0.40656   0.00000  Uiso   1.00
H166   H     0.64980   0.75078   0.28707   0.00000  Uiso   1.00
H167   H     0.44732   0.54692   0.28819   0.00000  Uiso   1.00
H168   H     0.20625   0.72820   0.51527   0.00000  Uiso   1.00
H169   H     0.49171   0.65604   0.63367   0.00000  Uiso   1.00
H170   H     0.59552   0.69127   0.60541   0.00000  Uiso   1.00
H171   H     0.49950   0.59459   0.60593   0.00000  Uiso   1.00
H172   H     0.38518   0.68055   0.71362   0.00000  Uiso   1.00
H173   H     0.70262   0.73300   0.53629   0.00000  Uiso   1.00
H174   H     0.50014   0.52914   0.53741   0.00000  Uiso   1.00
H175   H     0.25907   0.71042   0.76449   0.00000  Uiso   1.00
O176   O     0.74340   0.76543   0.38783   0.00000  Uiso   1.00
O177   O     0.47774   0.49797   0.38930   0.00000  Uiso   1.00
O178   O     0.16146   0.73580   0.68722   0.00000  Uiso   1.00
N179   N     0.64798   0.74177   0.34961   0.00000  Uiso   1.00
N180   N     0.45868   0.55117   0.35065   0.00000  Uiso   1.00
N181   N     0.23329   0.72064   0.56295   0.00000  Uiso   1.00
N182   N     0.67640   0.73220   0.48372   0.00000  Uiso   1.00
N183   N     0.48710   0.54161   0.48475   0.00000  Uiso   1.00
N184   N     0.26171   0.71107   0.69705   0.00000  Uiso   1.00
C185   C     0.94416   0.82794   0.90927   0.00000  Uiso   1.00
C186   C     0.00727   0.81107   0.92561   0.00000  Uiso   1.00
C187   C     0.04451   0.79155   0.86464   0.00000  Uiso   1.00
C188   C     0.10062   0.77834   0.89239   0.00000  Uiso   1.00
C189   C     0.19587   0.75122   0.90470   0.00000  Uiso   1.00
C190   C     0.95511   0.86360   0.92589   0.00000  Uiso   1.00
C191   C     0.94848   0.88825   0.86515   0.00000  Uiso   1.00
C192   C     0.96067   0.91926   0.89315   0.00000  Uiso   1.00
C193   C     0.97490   0.97369   0.90592   0.00000  Uiso   1.00
C194   C     0.89300   0.81689   0.98439   0.00000  Uiso   1.00
C195   C     0.83414   0.80227   0.97286   0.00000  Uiso   1.00
C196   C     0.79403   0.79396   0.05011   0.00000  Uiso   1.00
C197   C     0.71182   0.77587   0.15373   0.00000  Uiso   1.00
C198   C     0.97758   0.83920   0.06698   0.00000  Uiso   1.00
C199   C     0.02542   0.81718   0.01127   0.00000  Uiso   1.00
C200   C     0.08149   0.80400   0.03912   0.00000  Uiso   1.00
C201   C     0.11880   0.78446   0.97820   0.00000  Uiso   1.00
C202   C     0.97326   0.86971   0.01154   0.00000  Uiso   1.00
C203   C     0.98546   0.90069   0.03964   0.00000  Uiso   1.00
C204   C     0.97886   0.92538   0.97896   0.00000  Uiso   1.00
C205   C     0.91115   0.82300   0.07006   0.00000  Uiso   1.00
C206   C     0.87112   0.81472   0.14734   0.00000  Uiso   1.00
C207   C     0.81221   0.80009   0.13593   0.00000  Uiso   1.00
H208   H     0.93003   0.82319   0.84258   0.00000  Uiso   1.00
H209   H     0.03045   0.78683   0.79835   0.00000  Uiso   1.00
H210   H     0.93443   0.88351   0.79887   0.00000  Uiso   1.00
H211   H     0.82011   0.79754   0.90656   0.00000  Uiso   1.00
H212   H     0.14980   0.74922   0.78707   0.00000  Uiso   1.00
H213   H     0.94732   0.95308   0.78819   0.00000  Uiso   1.00
H214   H     0.70625   0.77180   0.01527   0.00000  Uiso   1.00
H215   H     0.99171   0.84396   0.13367   0.00000  Uiso   1.00
H216   H     0.09552   0.80873   0.10541   0.00000  Uiso   1.00
H217   H     0.99950   0.90541   0.10593   0.00000  Uiso   1.00
H218   H     0.88518   0.81945   0.21362   0.00000  Uiso   1.00
H219   H     0.20262   0.76700   0.03629   0.00000  Uiso   1.00
H220   H     0.00014   0.97086   0.03741   0.00000  Uiso   1.00
H221   H     0.75907   0.78958   0.26449   0.00000  Uiso   1.00
O222   O     0.24340   0.73457   0.88783   0.00000  Uiso   1.00
O223   O     0.97774   0.00203   0.88930   0.00000  Uiso   1.00
O224   O     0.66146   0.76420   0.18722   0.00000  Uiso   1.00
N225   N     0.14798   0.75823   0.84961   0.00000  Uiso   1.00
N226   N     0.95868   0.94883   0.85065   0.00000  Uiso   1.00
N227   N     0.73329   0.77936   0.06295   0.00000  Uiso   1.00
N228   N     0.17640   0.76780   0.98372   0.00000  Uiso   1.00
N229   N     0.98710   0.95839   0.98475   0.00000  Uiso   1.00
N230   N     0.76171   0.78893   0.19705   0.00000  Uiso   1.00
C231   C     0.44416   0.32794   0.90927   0.00000  Uiso   1.00
C232   C     0.50727   0.31107   0.92561   0.00000  Uiso   1.00
C233   C     0.54451   0.29155   0.86464   0.00000  Uiso   1.00
C234   C     0.60062   0.27834   0.89239   0.00000  Uiso   1.00
C235   C     0.69587   0.25122   0.90470   0.00000  Uiso   1.00
C236   C     0.45511   0.36360   0.92589   0.00000  Uiso   1.00
C237   C     0.44848   0.38825   0.86515   0.00000  Uiso   1.00
C238   C     0.46067   0.41926   0.89315   0.00000  Uiso   1.00
C239   C     0.47490   0.47369   0.90592   0.00000  Uiso   1.00
C240   C     0.39300   0.31689   0.98439   0.00000  Uiso   1.00
C241   C     0.33414   0.30227   0.97286   0.00000  Uiso   1.00
C242   C     0.29403   0.29396   0.05011   0.00000  Uiso   1.00
C243   C     0.21182   0.27587   0.15373   0.00000  Uiso   1.00
C244   C     0.47758   0.33920   0.06698   0.00000  Uiso   1.00
C245   C     0.52542   0.31718   0.01127   0.00000  Uiso   1.00
C246   C     0.58149   0.30400   0.03912   0.00000  Uiso   1.00
C247   C     0.61880   0.28446   0.97820   0.00000  Uiso   1.00
C248   C     0.47326   0.36971   0.01154   0.00000  Uiso   1.00
C249   C     0.48546   0.40069   0.03964   0.00000  Uiso   1.00
C250   C     0.47886   0.42538   0.97896   0.00000  Uiso   1.00
C251   C     0.41115   0.32300   0.07006   0.00000  Uiso   1.00
C252   C     0.37112   0.31472   0.14734   0.00000  Uiso   1.00
C253   C     0.31221   0.30009   0.13593   0.00000  Uiso   1.00
H254   H     0.43003   0.32319   0.84258   0.00000  Uiso   1.00
H255   H     0.53045   0.28683   0.79835   0.00000  Uiso   1.00
H256   H     0.43443   0.38351   0.79887   0.00000  Uiso   1.00
H257   H     0.32011   0.29754   0.90656   0.00000  Uiso   1.00
H258   H     0.64980   0.24922   0.78707   0.00000  Uiso   1.00
H259   H     0.44732   0.45308   0.78819   0.00000  Uiso   1.00
H260   H     0.20625   0.27180   0.01527   0.00000  Uiso   1.00
H261   H     0.49171   0.34396   0.13367   0.00000  Uiso   1.00
H262   H     0.59552   0.30873   0.10541   0.00000  Uiso   1.00
H263   H     0.49950   0.40541   0.10593   0.00000  Uiso   1.00
H264   H     0.38518   0.31945   0.21362   0.00000  Uiso   1.00
H265   H     0.70262   0.26700   0.03629   0.00000  Uiso   1.00
H266   H     0.50014   0.47086   0.03741   0.00000  Uiso   1.00
H267   H     0.25907   0.28958   0.26449   0.00000  Uiso   1.00
O268   O     0.74340   0.23457   0.88783   0.00000  Uiso   1.00
O269   O     0.47774   0.50203   0.88930   0.00000  Uiso   1.00
O270   O     0.16146   0.26420   0.18722   0.00000  Uiso   1.00
N271   N     0.64798   0.25823   0.84961   0.00000  Uiso   1.00
N272   N     0.45868   0.44883   0.85065   0.00000  Uiso   1.00
N273   N     0.23329   0.27936   0.06295   0.00000  Uiso   1.00
N274   N     0.67640   0.26780   0.98372   0.00000  Uiso   1.00
N275   N     0.48710   0.45839   0.98475   0.00000  Uiso   1.00
N276   N     0.26171   0.28893   0.19705   0.00000  Uiso   1.00
C277   C     0.05584   0.82794   0.59073   0.00000  Uiso   1.00
C278   C     0.99273   0.81107   0.57439   0.00000  Uiso   1.00
C279   C     0.95549   0.79155   0.63536   0.00000  Uiso   1.00
C280   C     0.89938   0.77834   0.60761   0.00000  Uiso   1.00
C281   C     0.80413   0.75122   0.59530   0.00000  Uiso   1.00
C282   C     0.04489   0.86360   0.57411   0.00000  Uiso   1.00
C283   C     0.05152   0.88825   0.63485   0.00000  Uiso   1.00
C284   C     0.03933   0.91926   0.60685   0.00000  Uiso   1.00
C285   C     0.02510   0.97369   0.59408   0.00000  Uiso   1.00
C286   C     0.10700   0.81689   0.51561   0.00000  Uiso   1.00
C287   C     0.16586   0.80227   0.52714   0.00000  Uiso   1.00
C288   C     0.20597   0.79396   0.44989   0.00000  Uiso   1.00
C289   C     0.28818   0.77587   0.34627   0.00000  Uiso   1.00
C290   C     0.02242   0.83920   0.43302   0.00000  Uiso   1.00
C291   C     0.97458   0.81718   0.48873   0.00000  Uiso   1.00
C292   C     0.91851   0.80400   0.46088   0.00000  Uiso   1.00
C293   C     0.88120   0.78446   0.52180   0.00000  Uiso   1.00
C294   C     0.02674   0.86971   0.48846   0.00000  Uiso   1.00
C295   C     0.01454   0.90069   0.46036   0.00000  Uiso   1.00
C296   C     0.02114   0.92538   0.52104   0.00000  Uiso   1.00
C297   C     0.08885   0.82300   0.42994   0.00000  Uiso   1.00
C298   C     0.12888   0.81472   0.35266   0.00000  Uiso   1.00
C299   C     0.18779   0.80009   0.36407   0.00000  Uiso   1.00
H300   H     0.06997   0.82319   0.65742   0.00000  Uiso   1.00
H301   H     0.96955   0.78683   0.70165   0.00000  Uiso   1.00
H302   H     0.06557   0.88351   0.70113   0.00000  Uiso   1.00
H303   H     0.17989   0.79754   0.59344   0.00000  Uiso   1.00
H304   H     0.85020   0.74922   0.71293   0.00000  Uiso   1.00
H305   H     0.05268   0.95308   0.71181   0.00000  Uiso   1.00
H306   H     0.29375   0.77180   0.48473   0.00000  Uiso   1.00
H307   H     0.00829   0.84396   0.36633   0.00000  Uiso   1.00
H308   H     0.90448   0.80873   0.39459   0.00000  Uiso   1.00
H309   H     0.00050   0.90541   0.39407   0.00000  Uiso   1.00
H310   H     0.11482   0.81945   0.28638   0.00000  Uiso   1.00
H311   H     0.79738   0.76700   0.46371   0.00000  Uiso   1.00
H312   H     0.99986   0.97086   0.46259   0.00000  Uiso   1.00
H313   H     0.24093   0.78958   0.23551   0.00000  Uiso   1.00
O314   O     0.75660   0.73457   0.61217   0.00000  Uiso   1.00
O315   O     0.02226   0.00203   0.61070   0.00000  Uiso   1.00
O316   O     0.33854   0.76420   0.31278   0.00000  Uiso   1.00
N317   N     0.85202   0.75823   0.65039   0.00000  Uiso   1.00
N318   N     0.04132   0.94883   0.64935   0.00000  Uiso   1.00
N319   N     0.26671   0.77936   0.43705   0.00000  Uiso   1.00
N320   N     0.82360   0.76780   0.51628   0.00000  Uiso   1.00
N321   N     0.01290   0.95839   0.51525   0.00000  Uiso   1.00
N322   N     0.23829   0.78893   0.30295   0.00000  Uiso   1.00
C323   C     0.55584   0.32794   0.59073   0.00000  Uiso   1.00
C324   C     0.49273   0.31107   0.57439   0.00000  Uiso   1.00
C325   C     0.45549   0.29155   0.63536   0.00000  Uiso   1.00
C326   C     0.39938   0.27834   0.60761   0.00000  Uiso   1.00
C327   C     0.30413   0.25122   0.59530   0.00000  Uiso   1.00
C328   C     0.54489   0.36360   0.57411   0.00000  Uiso   1.00
C329   C     0.55152   0.38825   0.63485   0.00000  Uiso   1.00
C330   C     0.53933   0.41926   0.60685   0.00000  Uiso   1.00
C331   C     0.52510   0.47369   0.59408   0.00000  Uiso   1.00
C332   C     0.60700   0.31689   0.51561   0.00000  Uiso   1.00
C333   C     0.66586   0.30227   0.52714   0.00000  Uiso   1.00
C334   C     0.70597   0.29396   0.44989   0.00000  Uiso   1.00
C335   C     0.78818   0.27587   0.34627   0.00000  Uiso   1.00
C336   C     0.52242   0.33920   0.43302   0.00000  Uiso   1.00
C337   C     0.47458   0.31718   0.48873   0.00000  Uiso   1.00
C338   C     0.41851   0.30400   0.46088   0.00000  Uiso   1.00
C339   C     0.38120   0.28446   0.52180   0.00000  Uiso   1.00
C340   C     0.52674   0.36971   0.48846   0.00000  Uiso   1.00
C341   C     0.51454   0.40069   0.46036   0.00000  Uiso   1.00
C342   C     0.52114   0.42538   0.52104   0.00000  Uiso   1.00
C343   C     0.58885   0.32300   0.42994   0.00000  Uiso   1.00
C344   C     0.62888   0.31472   0.35266   0.00000  Uiso   1.00
C345   C     0.68779   0.30009   0.36407   0.00000  Uiso   1.00
H346   H     0.56997   0.32319   0.65742   0.00000  Uiso   1.00
H347   H     0.46955   0.28683   0.70165   0.00000  Uiso   1.00
H348   H     0.56557   0.38351   0.70113   0.00000  Uiso   1.00
H349   H     0.67989   0.29754   0.59344   0.00000  Uiso   1.00
H350   H     0.35020   0.24922   0.71293   0.00000  Uiso   1.00
H351   H     0.55268   0.45308   0.71181   0.00000  Uiso   1.00
H352   H     0.79375   0.27180   0.48473   0.00000  Uiso   1.00
H353   H     0.50829   0.34396   0.36633   0.00000  Uiso   1.00
H354   H     0.40448   0.30873   0.39459   0.00000  Uiso   1.00
H355   H     0.50050   0.40541   0.39407   0.00000  Uiso   1.00
H356   H     0.61482   0.31945   0.28638   0.00000  Uiso   1.00
H357   H     0.29738   0.26700   0.46371   0.00000  Uiso   1.00
H358   H     0.49986   0.47086   0.46259   0.00000  Uiso   1.00
H359   H     0.74093   0.28958   0.23551   0.00000  Uiso   1.00
O360   O     0.25660   0.23457   0.61217   0.00000  Uiso   1.00
O361   O     0.52226   0.50203   0.61070   0.00000  Uiso   1.00
O362   O     0.83854   0.26420   0.31278   0.00000  Uiso   1.00
N363   N     0.35202   0.25823   0.65039   0.00000  Uiso   1.00
N364   N     0.54132   0.44883   0.64935   0.00000  Uiso   1.00
N365   N     0.76671   0.27936   0.43705   0.00000  Uiso   1.00
N366   N     0.32360   0.26780   0.51628   0.00000  Uiso   1.00
N367   N     0.51290   0.45839   0.51525   0.00000  Uiso   1.00
N368   N     0.73829   0.28893   0.30295   0.00000  Uiso   1.00
