data_job_03477
_audit_creation_date              2018-12-19
_audit_creation_method            'Materials Studio'
_symmetry_space_group_name_H-M    'P1'
_symmetry_Int_Tables_number       1
_symmetry_cell_setting            triclinic
loop_
_symmetry_equiv_pos_as_xyz
  x,y,z
_cell_length_a                    11.7628
_cell_length_b                    24.1346
_cell_length_c                    23.9293
_cell_angle_alpha                 90.0000
_cell_angle_beta                  90.0000
_cell_angle_gamma                 90.0000
loop_
_atom_site_label
_atom_site_type_symbol
_atom_site_fract_x
_atom_site_fract_y
_atom_site_fract_z
_atom_site_U_iso_or_equiv
_atom_site_adp_type
_atom_site_occupancy
C1     C     0.54812   0.85247   0.93582   0.00000  Uiso   1.00
C2     C     0.64238   0.87680   0.89960   0.00000  Uiso   1.00
C3     C     0.75332   0.88677   0.91658   0.00000  Uiso   1.00
C4     C     0.82672   0.90923   0.87719   0.00000  Uiso   1.00
C5     C     0.97860   0.94520   0.82923   0.00000  Uiso   1.00
C6     C     0.45112   0.89437   0.93442   0.00000  Uiso   1.00
C7     C     0.40125   0.91911   0.98068   0.00000  Uiso   1.00
C8     C     0.31365   0.95635   0.97061   0.00000  Uiso   1.00
C9     C     0.16854   0.01957   0.97672   0.00000  Uiso   1.00
C10    C     0.50500   0.80143   0.90482   0.00000  Uiso   1.00
C11    C     0.50040   0.74802   0.92619   0.00000  Uiso   1.00
C12    C     0.45813   0.70701   0.89120   0.00000  Uiso   1.00
C13    C     0.39668   0.62592   0.85133   0.00000  Uiso   1.00
C14    C     0.48121   0.87462   0.83568   0.00000  Uiso   1.00
C15    C     0.60603   0.88883   0.84520   0.00000  Uiso   1.00
C16    C     0.67929   0.91127   0.80578   0.00000  Uiso   1.00
C17    C     0.79032   0.92128   0.82270   0.00000  Uiso   1.00
C18    C     0.41478   0.90640   0.88003   0.00000  Uiso   1.00
C19    C     0.32723   0.94361   0.86989   0.00000  Uiso   1.00
C20    C     0.27724   0.96840   0.91612   0.00000  Uiso   1.00
C21    C     0.46866   0.81346   0.85042   0.00000  Uiso   1.00
C22    C     0.42638   0.77252   0.81539   0.00000  Uiso   1.00
C23    C     0.42172   0.71906   0.83670   0.00000  Uiso   1.00
H24    H     0.57640   0.84311   0.97817   0.00000  Uiso   1.00
H25    H     0.78140   0.87746   0.95868   0.00000  Uiso   1.00
H26    H     0.42938   0.90978   0.02277   0.00000  Uiso   1.00
H27    H     0.52853   0.73873   0.96828   0.00000  Uiso   1.00
H28    H     0.99264   0.92087   0.91308   0.00000  Uiso   1.00
H29    H     0.25037   0.98902   0.04824   0.00000  Uiso   1.00
H30    H     0.45942   0.62830   0.93334   0.00000  Uiso   1.00
H31    H     0.45292   0.88399   0.79333   0.00000  Uiso   1.00
H32    H     0.65115   0.92058   0.76369   0.00000  Uiso   1.00
H33    H     0.29913   0.95291   0.82779   0.00000  Uiso   1.00
H34    H     0.39827   0.78185   0.77330   0.00000  Uiso   1.00
H35    H     0.88692   0.95587   0.75483   0.00000  Uiso   1.00
H36    H     0.14464   0.02402   0.88998   0.00000  Uiso   1.00
H37    H     0.35370   0.66330   0.77508   0.00000  Uiso   1.00
O38    O     0.07240   0.96172   0.81780   0.00000  Uiso   1.00
O39    O     0.09855   0.05112   0.99512   0.00000  Uiso   1.00
O40    O     0.37284   0.57787   0.84437   0.00000  Uiso   1.00
N41    N     0.94056   0.92407   0.87990   0.00000  Uiso   1.00
N42    N     0.24659   0.98779   0.00626   0.00000  Uiso   1.00
N43    N     0.44201   0.65056   0.89885   0.00000  Uiso   1.00
N44    N     0.88368   0.94291   0.79474   0.00000  Uiso   1.00
N45    N     0.18970   0.00663   0.92110   0.00000  Uiso   1.00
N46    N     0.38513   0.66939   0.81369   0.00000  Uiso   1.00
C47    C     0.95188   0.64753   0.43582   0.00000  Uiso   1.00
C48    C     0.85762   0.62320   0.39960   0.00000  Uiso   1.00
C49    C     0.74668   0.61323   0.41658   0.00000  Uiso   1.00
C50    C     0.67328   0.59077   0.37719   0.00000  Uiso   1.00
C51    C     0.52140   0.55480   0.32923   0.00000  Uiso   1.00
C52    C     0.04888   0.60563   0.43442   0.00000  Uiso   1.00
C53    C     0.09875   0.58089   0.48068   0.00000  Uiso   1.00
C54    C     0.18635   0.54365   0.47061   0.00000  Uiso   1.00
C55    C     0.33146   0.48043   0.47672   0.00000  Uiso   1.00
C56    C     0.99500   0.69857   0.40482   0.00000  Uiso   1.00
C57    C     0.99960   0.75198   0.42619   0.00000  Uiso   1.00
C58    C     0.04187   0.79299   0.39120   0.00000  Uiso   1.00
C59    C     0.10332   0.87408   0.35133   0.00000  Uiso   1.00
C60    C     0.01879   0.62538   0.33568   0.00000  Uiso   1.00
C61    C     0.89397   0.61117   0.34520   0.00000  Uiso   1.00
C62    C     0.82071   0.58873   0.30578   0.00000  Uiso   1.00
C63    C     0.70968   0.57872   0.32270   0.00000  Uiso   1.00
C64    C     0.08522   0.59360   0.38003   0.00000  Uiso   1.00
C65    C     0.17277   0.55639   0.36989   0.00000  Uiso   1.00
C66    C     0.22276   0.53160   0.41612   0.00000  Uiso   1.00
C67    C     0.03134   0.68654   0.35042   0.00000  Uiso   1.00
C68    C     0.07362   0.72748   0.31539   0.00000  Uiso   1.00
C69    C     0.07828   0.78094   0.33670   0.00000  Uiso   1.00
H70    H     0.92360   0.65689   0.47817   0.00000  Uiso   1.00
H71    H     0.71860   0.62254   0.45868   0.00000  Uiso   1.00
H72    H     0.07062   0.59022   0.52277   0.00000  Uiso   1.00
H73    H     0.97147   0.76127   0.46828   0.00000  Uiso   1.00
H74    H     0.50736   0.57913   0.41308   0.00000  Uiso   1.00
H75    H     0.24963   0.51098   0.54824   0.00000  Uiso   1.00
H76    H     0.04058   0.87170   0.43334   0.00000  Uiso   1.00
H77    H     0.04708   0.61601   0.29333   0.00000  Uiso   1.00
H78    H     0.84885   0.57942   0.26369   0.00000  Uiso   1.00
H79    H     0.20087   0.54709   0.32779   0.00000  Uiso   1.00
H80    H     0.10173   0.71815   0.27330   0.00000  Uiso   1.00
H81    H     0.61308   0.54413   0.25483   0.00000  Uiso   1.00
H82    H     0.35536   0.47598   0.38998   0.00000  Uiso   1.00
H83    H     0.14630   0.83670   0.27508   0.00000  Uiso   1.00
O84    O     0.42760   0.53828   0.31780   0.00000  Uiso   1.00
O85    O     0.40145   0.44888   0.49512   0.00000  Uiso   1.00
O86    O     0.12716   0.92213   0.34437   0.00000  Uiso   1.00
N87    N     0.55944   0.57593   0.37990   0.00000  Uiso   1.00
N88    N     0.25341   0.51221   0.50626   0.00000  Uiso   1.00
N89    N     0.05799   0.84944   0.39885   0.00000  Uiso   1.00
N90    N     0.61632   0.55709   0.29474   0.00000  Uiso   1.00
N91    N     0.31030   0.49337   0.42110   0.00000  Uiso   1.00
N92    N     0.11487   0.83061   0.31369   0.00000  Uiso   1.00
C93    C     0.45188   0.85247   0.56418   0.00000  Uiso   1.00
C94    C     0.35762   0.87680   0.60040   0.00000  Uiso   1.00
C95    C     0.24668   0.88677   0.58342   0.00000  Uiso   1.00
C96    C     0.17328   0.90923   0.62281   0.00000  Uiso   1.00
C97    C     0.02140   0.94520   0.67077   0.00000  Uiso   1.00
C98    C     0.54888   0.89437   0.56558   0.00000  Uiso   1.00
C99    C     0.59875   0.91911   0.51932   0.00000  Uiso   1.00
C100   C     0.68635   0.95635   0.52939   0.00000  Uiso   1.00
C101   C     0.83146   0.01957   0.52328   0.00000  Uiso   1.00
C102   C     0.49500   0.80143   0.59518   0.00000  Uiso   1.00
C103   C     0.49960   0.74802   0.57381   0.00000  Uiso   1.00
C104   C     0.54187   0.70701   0.60880   0.00000  Uiso   1.00
C105   C     0.60332   0.62592   0.64867   0.00000  Uiso   1.00
C106   C     0.51879   0.87462   0.66432   0.00000  Uiso   1.00
C107   C     0.39397   0.88883   0.65480   0.00000  Uiso   1.00
C108   C     0.32071   0.91127   0.69422   0.00000  Uiso   1.00
C109   C     0.20968   0.92128   0.67730   0.00000  Uiso   1.00
C110   C     0.58522   0.90640   0.61997   0.00000  Uiso   1.00
C111   C     0.67277   0.94361   0.63011   0.00000  Uiso   1.00
C112   C     0.72276   0.96840   0.58388   0.00000  Uiso   1.00
C113   C     0.53134   0.81346   0.64958   0.00000  Uiso   1.00
C114   C     0.57362   0.77252   0.68461   0.00000  Uiso   1.00
C115   C     0.57828   0.71906   0.66330   0.00000  Uiso   1.00
H116   H     0.42360   0.84311   0.52183   0.00000  Uiso   1.00
H117   H     0.21860   0.87746   0.54132   0.00000  Uiso   1.00
H118   H     0.57062   0.90978   0.47723   0.00000  Uiso   1.00
H119   H     0.47147   0.73873   0.53172   0.00000  Uiso   1.00
H120   H     0.00736   0.92087   0.58692   0.00000  Uiso   1.00
H121   H     0.74963   0.98902   0.45176   0.00000  Uiso   1.00
H122   H     0.54058   0.62830   0.56666   0.00000  Uiso   1.00
H123   H     0.54708   0.88399   0.70667   0.00000  Uiso   1.00
H124   H     0.34885   0.92058   0.73631   0.00000  Uiso   1.00
H125   H     0.70087   0.95291   0.67221   0.00000  Uiso   1.00
H126   H     0.60173   0.78185   0.72670   0.00000  Uiso   1.00
H127   H     0.11308   0.95587   0.74517   0.00000  Uiso   1.00
H128   H     0.85536   0.02402   0.61002   0.00000  Uiso   1.00
H129   H     0.64630   0.66330   0.72492   0.00000  Uiso   1.00
O130   O     0.92760   0.96172   0.68220   0.00000  Uiso   1.00
O131   O     0.90145   0.05112   0.50488   0.00000  Uiso   1.00
O132   O     0.62716   0.57787   0.65563   0.00000  Uiso   1.00
N133   N     0.05944   0.92407   0.62010   0.00000  Uiso   1.00
N134   N     0.75341   0.98779   0.49374   0.00000  Uiso   1.00
N135   N     0.55799   0.65056   0.60115   0.00000  Uiso   1.00
N136   N     0.11632   0.94291   0.70526   0.00000  Uiso   1.00
N137   N     0.81030   0.00663   0.57890   0.00000  Uiso   1.00
N138   N     0.61487   0.66939   0.68631   0.00000  Uiso   1.00
C139   C     0.04812   0.64753   0.06418   0.00000  Uiso   1.00
C140   C     0.14238   0.62320   0.10040   0.00000  Uiso   1.00
C141   C     0.25332   0.61323   0.08342   0.00000  Uiso   1.00
C142   C     0.32672   0.59077   0.12281   0.00000  Uiso   1.00
C143   C     0.47860   0.55480   0.17077   0.00000  Uiso   1.00
C144   C     0.95112   0.60563   0.06558   0.00000  Uiso   1.00
C145   C     0.90125   0.58089   0.01932   0.00000  Uiso   1.00
C146   C     0.81365   0.54365   0.02939   0.00000  Uiso   1.00
C147   C     0.66854   0.48043   0.02328   0.00000  Uiso   1.00
C148   C     0.00500   0.69857   0.09518   0.00000  Uiso   1.00
C149   C     0.00040   0.75198   0.07381   0.00000  Uiso   1.00
C150   C     0.95813   0.79299   0.10880   0.00000  Uiso   1.00
C151   C     0.89668   0.87408   0.14867   0.00000  Uiso   1.00
C152   C     0.98121   0.62538   0.16432   0.00000  Uiso   1.00
C153   C     0.10603   0.61117   0.15480   0.00000  Uiso   1.00
C154   C     0.17929   0.58873   0.19422   0.00000  Uiso   1.00
C155   C     0.29032   0.57872   0.17730   0.00000  Uiso   1.00
C156   C     0.91478   0.59360   0.11997   0.00000  Uiso   1.00
C157   C     0.82723   0.55639   0.13011   0.00000  Uiso   1.00
C158   C     0.77724   0.53160   0.08388   0.00000  Uiso   1.00
C159   C     0.96866   0.68654   0.14958   0.00000  Uiso   1.00
C160   C     0.92638   0.72748   0.18461   0.00000  Uiso   1.00
C161   C     0.92172   0.78094   0.16330   0.00000  Uiso   1.00
H162   H     0.07640   0.65689   0.02183   0.00000  Uiso   1.00
H163   H     0.28140   0.62254   0.04132   0.00000  Uiso   1.00
H164   H     0.92938   0.59022   0.97723   0.00000  Uiso   1.00
H165   H     0.02853   0.76127   0.03172   0.00000  Uiso   1.00
H166   H     0.49264   0.57913   0.08692   0.00000  Uiso   1.00
H167   H     0.75037   0.51098   0.95176   0.00000  Uiso   1.00
H168   H     0.95942   0.87170   0.06666   0.00000  Uiso   1.00
H169   H     0.95292   0.61601   0.20667   0.00000  Uiso   1.00
H170   H     0.15115   0.57942   0.23631   0.00000  Uiso   1.00
H171   H     0.79913   0.54709   0.17221   0.00000  Uiso   1.00
H172   H     0.89827   0.71815   0.22670   0.00000  Uiso   1.00
H173   H     0.38692   0.54413   0.24517   0.00000  Uiso   1.00
H174   H     0.64464   0.47598   0.11002   0.00000  Uiso   1.00
H175   H     0.85370   0.83670   0.22492   0.00000  Uiso   1.00
O176   O     0.57240   0.53828   0.18220   0.00000  Uiso   1.00
O177   O     0.59855   0.44888   0.00488   0.00000  Uiso   1.00
O178   O     0.87284   0.92213   0.15563   0.00000  Uiso   1.00
N179   N     0.44056   0.57593   0.12010   0.00000  Uiso   1.00
N180   N     0.74659   0.51221   0.99374   0.00000  Uiso   1.00
N181   N     0.94201   0.84944   0.10115   0.00000  Uiso   1.00
N182   N     0.38368   0.55709   0.20526   0.00000  Uiso   1.00
N183   N     0.68970   0.49337   0.07890   0.00000  Uiso   1.00
N184   N     0.88513   0.83061   0.18631   0.00000  Uiso   1.00
C185   C     0.45188   0.14753   0.06418   0.00000  Uiso   1.00
C186   C     0.35762   0.12320   0.10040   0.00000  Uiso   1.00
C187   C     0.24668   0.11323   0.08342   0.00000  Uiso   1.00
C188   C     0.17328   0.09077   0.12281   0.00000  Uiso   1.00
C189   C     0.02140   0.05480   0.17077   0.00000  Uiso   1.00
C190   C     0.54888   0.10563   0.06558   0.00000  Uiso   1.00
C191   C     0.59875   0.08089   0.01932   0.00000  Uiso   1.00
C192   C     0.68635   0.04365   0.02939   0.00000  Uiso   1.00
C193   C     0.83146   0.98043   0.02328   0.00000  Uiso   1.00
C194   C     0.49500   0.19857   0.09518   0.00000  Uiso   1.00
C195   C     0.49960   0.25198   0.07381   0.00000  Uiso   1.00
C196   C     0.54187   0.29299   0.10880   0.00000  Uiso   1.00
C197   C     0.60332   0.37408   0.14867   0.00000  Uiso   1.00
C198   C     0.51879   0.12538   0.16432   0.00000  Uiso   1.00
C199   C     0.39397   0.11117   0.15480   0.00000  Uiso   1.00
C200   C     0.32071   0.08873   0.19422   0.00000  Uiso   1.00
C201   C     0.20968   0.07872   0.17730   0.00000  Uiso   1.00
C202   C     0.58522   0.09360   0.11997   0.00000  Uiso   1.00
C203   C     0.67277   0.05639   0.13011   0.00000  Uiso   1.00
C204   C     0.72276   0.03160   0.08388   0.00000  Uiso   1.00
C205   C     0.53134   0.18654   0.14958   0.00000  Uiso   1.00
C206   C     0.57362   0.22748   0.18461   0.00000  Uiso   1.00
C207   C     0.57828   0.28094   0.16330   0.00000  Uiso   1.00
H208   H     0.42360   0.15689   0.02183   0.00000  Uiso   1.00
H209   H     0.21860   0.12254   0.04132   0.00000  Uiso   1.00
H210   H     0.57062   0.09022   0.97723   0.00000  Uiso   1.00
H211   H     0.47147   0.26127   0.03172   0.00000  Uiso   1.00
H212   H     0.00736   0.07913   0.08692   0.00000  Uiso   1.00
H213   H     0.74963   0.01098   0.95176   0.00000  Uiso   1.00
H214   H     0.54058   0.37170   0.06666   0.00000  Uiso   1.00
H215   H     0.54708   0.11601   0.20667   0.00000  Uiso   1.00
H216   H     0.34885   0.07942   0.23631   0.00000  Uiso   1.00
H217   H     0.70087   0.04709   0.17221   0.00000  Uiso   1.00
H218   H     0.60173   0.21815   0.22670   0.00000  Uiso   1.00
H219   H     0.11308   0.04413   0.24517   0.00000  Uiso   1.00
H220   H     0.85536   0.97598   0.11002   0.00000  Uiso   1.00
H221   H     0.64630   0.33670   0.22492   0.00000  Uiso   1.00
O222   O     0.92760   0.03828   0.18220   0.00000  Uiso   1.00
O223   O     0.90145   0.94888   0.00488   0.00000  Uiso   1.00
O224   O     0.62716   0.42213   0.15563   0.00000  Uiso   1.00
N225   N     0.05944   0.07593   0.12010   0.00000  Uiso   1.00
N226   N     0.75341   0.01221   0.99374   0.00000  Uiso   1.00
N227   N     0.55799   0.34944   0.10115   0.00000  Uiso   1.00
N228   N     0.11632   0.05709   0.20526   0.00000  Uiso   1.00
N229   N     0.81030   0.99337   0.07890   0.00000  Uiso   1.00
N230   N     0.61487   0.33061   0.18631   0.00000  Uiso   1.00
C231   C     0.04812   0.35247   0.56418   0.00000  Uiso   1.00
C232   C     0.14238   0.37680   0.60040   0.00000  Uiso   1.00
C233   C     0.25332   0.38677   0.58342   0.00000  Uiso   1.00
C234   C     0.32672   0.40923   0.62281   0.00000  Uiso   1.00
C235   C     0.47860   0.44520   0.67077   0.00000  Uiso   1.00
C236   C     0.95112   0.39437   0.56558   0.00000  Uiso   1.00
C237   C     0.90125   0.41911   0.51932   0.00000  Uiso   1.00
C238   C     0.81365   0.45635   0.52939   0.00000  Uiso   1.00
C239   C     0.66854   0.51957   0.52328   0.00000  Uiso   1.00
C240   C     0.00500   0.30143   0.59518   0.00000  Uiso   1.00
C241   C     0.00040   0.24802   0.57381   0.00000  Uiso   1.00
C242   C     0.95813   0.20701   0.60880   0.00000  Uiso   1.00
C243   C     0.89668   0.12592   0.64867   0.00000  Uiso   1.00
C244   C     0.98121   0.37462   0.66432   0.00000  Uiso   1.00
C245   C     0.10603   0.38883   0.65480   0.00000  Uiso   1.00
C246   C     0.17929   0.41127   0.69422   0.00000  Uiso   1.00
C247   C     0.29032   0.42128   0.67730   0.00000  Uiso   1.00
C248   C     0.91478   0.40640   0.61997   0.00000  Uiso   1.00
C249   C     0.82723   0.44361   0.63011   0.00000  Uiso   1.00
C250   C     0.77724   0.46840   0.58388   0.00000  Uiso   1.00
C251   C     0.96866   0.31346   0.64958   0.00000  Uiso   1.00
C252   C     0.92638   0.27252   0.68461   0.00000  Uiso   1.00
C253   C     0.92172   0.21906   0.66330   0.00000  Uiso   1.00
H254   H     0.07640   0.34311   0.52183   0.00000  Uiso   1.00
H255   H     0.28140   0.37746   0.54132   0.00000  Uiso   1.00
H256   H     0.92938   0.40978   0.47723   0.00000  Uiso   1.00
H257   H     0.02853   0.23873   0.53172   0.00000  Uiso   1.00
H258   H     0.49264   0.42087   0.58692   0.00000  Uiso   1.00
H259   H     0.75037   0.48902   0.45176   0.00000  Uiso   1.00
H260   H     0.95942   0.12830   0.56666   0.00000  Uiso   1.00
H261   H     0.95292   0.38399   0.70667   0.00000  Uiso   1.00
H262   H     0.15115   0.42058   0.73631   0.00000  Uiso   1.00
H263   H     0.79913   0.45291   0.67221   0.00000  Uiso   1.00
H264   H     0.89827   0.28185   0.72670   0.00000  Uiso   1.00
H265   H     0.38692   0.45587   0.74517   0.00000  Uiso   1.00
H266   H     0.64464   0.52402   0.61002   0.00000  Uiso   1.00
H267   H     0.85370   0.16330   0.72492   0.00000  Uiso   1.00
O268   O     0.57240   0.46172   0.68220   0.00000  Uiso   1.00
O269   O     0.59855   0.55112   0.50488   0.00000  Uiso   1.00
O270   O     0.87284   0.07787   0.65563   0.00000  Uiso   1.00
N271   N     0.44056   0.42407   0.62010   0.00000  Uiso   1.00
N272   N     0.74659   0.48779   0.49374   0.00000  Uiso   1.00
N273   N     0.94201   0.15056   0.60115   0.00000  Uiso   1.00
N274   N     0.38368   0.44291   0.70526   0.00000  Uiso   1.00
N275   N     0.68970   0.50663   0.57890   0.00000  Uiso   1.00
N276   N     0.88513   0.16939   0.68631   0.00000  Uiso   1.00
C277   C     0.54812   0.14753   0.43582   0.00000  Uiso   1.00
C278   C     0.64238   0.12320   0.39960   0.00000  Uiso   1.00
C279   C     0.75332   0.11323   0.41658   0.00000  Uiso   1.00
C280   C     0.82672   0.09077   0.37719   0.00000  Uiso   1.00
C281   C     0.97860   0.05480   0.32923   0.00000  Uiso   1.00
C282   C     0.45112   0.10563   0.43442   0.00000  Uiso   1.00
C283   C     0.40125   0.08089   0.48068   0.00000  Uiso   1.00
C284   C     0.31365   0.04365   0.47061   0.00000  Uiso   1.00
C285   C     0.16854   0.98043   0.47672   0.00000  Uiso   1.00
C286   C     0.50500   0.19857   0.40482   0.00000  Uiso   1.00
C287   C     0.50040   0.25198   0.42619   0.00000  Uiso   1.00
C288   C     0.45813   0.29299   0.39120   0.00000  Uiso   1.00
C289   C     0.39668   0.37408   0.35133   0.00000  Uiso   1.00
C290   C     0.48121   0.12538   0.33568   0.00000  Uiso   1.00
C291   C     0.60603   0.11117   0.34520   0.00000  Uiso   1.00
C292   C     0.67929   0.08873   0.30578   0.00000  Uiso   1.00
C293   C     0.79032   0.07872   0.32270   0.00000  Uiso   1.00
C294   C     0.41478   0.09360   0.38003   0.00000  Uiso   1.00
C295   C     0.32723   0.05639   0.36989   0.00000  Uiso   1.00
C296   C     0.27724   0.03160   0.41612   0.00000  Uiso   1.00
C297   C     0.46866   0.18654   0.35042   0.00000  Uiso   1.00
C298   C     0.42638   0.22748   0.31539   0.00000  Uiso   1.00
C299   C     0.42172   0.28094   0.33670   0.00000  Uiso   1.00
H300   H     0.57640   0.15689   0.47817   0.00000  Uiso   1.00
H301   H     0.78140   0.12254   0.45868   0.00000  Uiso   1.00
H302   H     0.42938   0.09022   0.52277   0.00000  Uiso   1.00
H303   H     0.52853   0.26127   0.46828   0.00000  Uiso   1.00
H304   H     0.99264   0.07913   0.41308   0.00000  Uiso   1.00
H305   H     0.25037   0.01098   0.54824   0.00000  Uiso   1.00
H306   H     0.45942   0.37170   0.43334   0.00000  Uiso   1.00
H307   H     0.45292   0.11601   0.29333   0.00000  Uiso   1.00
H308   H     0.65115   0.07942   0.26369   0.00000  Uiso   1.00
H309   H     0.29913   0.04709   0.32779   0.00000  Uiso   1.00
H310   H     0.39827   0.21815   0.27330   0.00000  Uiso   1.00
H311   H     0.88692   0.04413   0.25483   0.00000  Uiso   1.00
H312   H     0.14464   0.97598   0.38998   0.00000  Uiso   1.00
H313   H     0.35370   0.33670   0.27508   0.00000  Uiso   1.00
O314   O     0.07240   0.03828   0.31780   0.00000  Uiso   1.00
O315   O     0.09855   0.94888   0.49512   0.00000  Uiso   1.00
O316   O     0.37284   0.42213   0.34437   0.00000  Uiso   1.00
N317   N     0.94056   0.07593   0.37990   0.00000  Uiso   1.00
N318   N     0.24659   0.01221   0.50626   0.00000  Uiso   1.00
N319   N     0.44201   0.34944   0.39885   0.00000  Uiso   1.00
N320   N     0.88368   0.05709   0.29474   0.00000  Uiso   1.00
N321   N     0.18970   0.99337   0.42110   0.00000  Uiso   1.00
N322   N     0.38513   0.33061   0.31369   0.00000  Uiso   1.00
C323   C     0.95188   0.35247   0.93582   0.00000  Uiso   1.00
C324   C     0.85762   0.37680   0.89960   0.00000  Uiso   1.00
C325   C     0.74668   0.38677   0.91658   0.00000  Uiso   1.00
C326   C     0.67328   0.40923   0.87719   0.00000  Uiso   1.00
C327   C     0.52140   0.44520   0.82923   0.00000  Uiso   1.00
C328   C     0.04888   0.39437   0.93442   0.00000  Uiso   1.00
C329   C     0.09875   0.41911   0.98068   0.00000  Uiso   1.00
C330   C     0.18635   0.45635   0.97061   0.00000  Uiso   1.00
C331   C     0.33146   0.51957   0.97672   0.00000  Uiso   1.00
C332   C     0.99500   0.30143   0.90482   0.00000  Uiso   1.00
C333   C     0.99960   0.24802   0.92619   0.00000  Uiso   1.00
C334   C     0.04187   0.20701   0.89120   0.00000  Uiso   1.00
C335   C     0.10332   0.12592   0.85133   0.00000  Uiso   1.00
C336   C     0.01879   0.37462   0.83568   0.00000  Uiso   1.00
C337   C     0.89397   0.38883   0.84520   0.00000  Uiso   1.00
C338   C     0.82071   0.41127   0.80578   0.00000  Uiso   1.00
C339   C     0.70968   0.42128   0.82270   0.00000  Uiso   1.00
C340   C     0.08522   0.40640   0.88003   0.00000  Uiso   1.00
C341   C     0.17277   0.44361   0.86989   0.00000  Uiso   1.00
C342   C     0.22276   0.46840   0.91612   0.00000  Uiso   1.00
C343   C     0.03134   0.31346   0.85042   0.00000  Uiso   1.00
C344   C     0.07362   0.27252   0.81539   0.00000  Uiso   1.00
C345   C     0.07828   0.21906   0.83670   0.00000  Uiso   1.00
H346   H     0.92360   0.34311   0.97817   0.00000  Uiso   1.00
H347   H     0.71860   0.37746   0.95868   0.00000  Uiso   1.00
H348   H     0.07062   0.40978   0.02277   0.00000  Uiso   1.00
H349   H     0.97147   0.23873   0.96828   0.00000  Uiso   1.00
H350   H     0.50736   0.42087   0.91308   0.00000  Uiso   1.00
H351   H     0.24963   0.48902   0.04824   0.00000  Uiso   1.00
H352   H     0.04058   0.12830   0.93334   0.00000  Uiso   1.00
H353   H     0.04708   0.38399   0.79333   0.00000  Uiso   1.00
H354   H     0.84885   0.42058   0.76369   0.00000  Uiso   1.00
H355   H     0.20087   0.45291   0.82779   0.00000  Uiso   1.00
H356   H     0.10173   0.28185   0.77330   0.00000  Uiso   1.00
H357   H     0.61308   0.45587   0.75483   0.00000  Uiso   1.00
H358   H     0.35536   0.52402   0.88998   0.00000  Uiso   1.00
H359   H     0.14630   0.16330   0.77508   0.00000  Uiso   1.00
O360   O     0.42760   0.46172   0.81780   0.00000  Uiso   1.00
O361   O     0.40145   0.55112   0.99512   0.00000  Uiso   1.00
O362   O     0.12716   0.07787   0.84437   0.00000  Uiso   1.00
N363   N     0.55944   0.42407   0.87990   0.00000  Uiso   1.00
N364   N     0.25341   0.48779   0.00626   0.00000  Uiso   1.00
N365   N     0.05799   0.15056   0.89885   0.00000  Uiso   1.00
N366   N     0.61632   0.44291   0.79474   0.00000  Uiso   1.00
N367   N     0.31030   0.50663   0.92110   0.00000  Uiso   1.00
N368   N     0.11487   0.16939   0.81369   0.00000  Uiso   1.00
