data_job_00695
_audit_creation_date              2018-12-19
_audit_creation_method            'Materials Studio'
_symmetry_space_group_name_H-M    'P1'
_symmetry_Int_Tables_number       1
_symmetry_cell_setting            triclinic
loop_
_symmetry_equiv_pos_as_xyz
  x,y,z
_cell_length_a                    10.5050
_cell_length_b                    12.5569
_cell_length_c                    21.5052
_cell_angle_alpha                 90.0000
_cell_angle_beta                  119.3488
_cell_angle_gamma                 90.0000
loop_
_atom_site_label
_atom_site_type_symbol
_atom_site_fract_x
_atom_site_fract_y
_atom_site_fract_z
_atom_site_U_iso_or_equiv
_atom_site_adp_type
_atom_site_occupancy
C1     C     0.08768   0.73269   0.33629   0.00000  Uiso   1.00
C2     C     0.06635   0.83568   0.36764   0.00000  Uiso   1.00
C3     C     0.93967   0.89630   0.33880   0.00000  Uiso   1.00
C4     C     0.94210   0.98788   0.37553   0.00000  Uiso   1.00
C5     C     0.89003   0.14330   0.41457   0.00000  Uiso   1.00
C6     C     0.22002   0.75100   0.32628   0.00000  Uiso   1.00
C7     C     0.22255   0.74042   0.26266   0.00000  Uiso   1.00
C8     C     0.35436   0.76071   0.26458   0.00000  Uiso   1.00
C9     C     0.54090   0.78459   0.23941   0.00000  Uiso   1.00
C10    C     0.13401   0.64897   0.39481   0.00000  Uiso   1.00
C11    C     0.06424   0.55258   0.38880   0.00000  Uiso   1.00
C12    C     0.12366   0.48696   0.44842   0.00000  Uiso   1.00
C13    C     0.17665   0.35242   0.52965   0.00000  Uiso   1.00
C14    C     0.31727   0.78754   0.45284   0.00000  Uiso   1.00
C15    C     0.19105   0.86547   0.43095   0.00000  Uiso   1.00
C16    C     0.19368   0.95699   0.46774   0.00000  Uiso   1.00
C17    C     0.06703   0.01773   0.43895   0.00000  Uiso   1.00
C18    C     0.34472   0.78080   0.38958   0.00000  Uiso   1.00
C19    C     0.47656   0.80110   0.39160   0.00000  Uiso   1.00
C20    C     0.47929   0.79056   0.32800   0.00000  Uiso   1.00
C21    C     0.25871   0.67877   0.45812   0.00000  Uiso   1.00
C22    C     0.31825   0.61328   0.51775   0.00000  Uiso   1.00
C23    C     0.24859   0.51681   0.51184   0.00000  Uiso   1.00
H24    H     0.99060   0.70949   0.28701   0.00000  Uiso   1.00
H25    H     0.84319   0.87322   0.28980   0.00000  Uiso   1.00
H26    H     0.12604   0.71735   0.21368   0.00000  Uiso   1.00
H27    H     0.96775   0.52955   0.33981   0.00000  Uiso   1.00
H28    H     0.73477   0.06790   0.32080   0.00000  Uiso   1.00
H29    H     0.33118   0.73921   0.16030   0.00000  Uiso   1.00
H30    H     0.99740   0.34319   0.42627   0.00000  Uiso   1.00
H31    H     0.41436   0.81074   0.50212   0.00000  Uiso   1.00
H32    H     0.29020   0.98002   0.51673   0.00000  Uiso   1.00
H33    H     0.57304   0.82415   0.44060   0.00000  Uiso   1.00
H34    H     0.41475   0.63636   0.56673   0.00000  Uiso   1.00
H35    H     0.09758   0.15459   0.50498   0.00000  Uiso   1.00
H36    H     0.69399   0.82589   0.34448   0.00000  Uiso   1.00
H37    H     0.36020   0.42988   0.61045   0.00000  Uiso   1.00
O38    O     0.82687   0.22080   0.41860   0.00000  Uiso   1.00
O39    O     0.60934   0.78955   0.20804   0.00000  Uiso   1.00
O40    O     0.17142   0.26999   0.55698   0.00000  Uiso   1.00
N41    N     0.83719   0.06506   0.36215   0.00000  Uiso   1.00
N42    N     0.39479   0.75777   0.21209   0.00000  Uiso   1.00
N43    N     0.08275   0.38751   0.46074   0.00000  Uiso   1.00
N44    N     0.03241   0.11171   0.46126   0.00000  Uiso   1.00
N45    N     0.59001   0.80441   0.31120   0.00000  Uiso   1.00
N46    N     0.27797   0.43416   0.55985   0.00000  Uiso   1.00
C47    C     0.91232   0.23269   0.16371   0.00000  Uiso   1.00
C48    C     0.93365   0.33568   0.13236   0.00000  Uiso   1.00
C49    C     0.06033   0.39630   0.16120   0.00000  Uiso   1.00
C50    C     0.05790   0.48788   0.12447   0.00000  Uiso   1.00
C51    C     0.10997   0.64330   0.08543   0.00000  Uiso   1.00
C52    C     0.77998   0.25100   0.17372   0.00000  Uiso   1.00
C53    C     0.77745   0.24042   0.23734   0.00000  Uiso   1.00
C54    C     0.64564   0.26071   0.23542   0.00000  Uiso   1.00
C55    C     0.45910   0.28459   0.26059   0.00000  Uiso   1.00
C56    C     0.86599   0.14897   0.10519   0.00000  Uiso   1.00
C57    C     0.93576   0.05258   0.11120   0.00000  Uiso   1.00
C58    C     0.87634   0.98696   0.05158   0.00000  Uiso   1.00
C59    C     0.82335   0.85242   0.97035   0.00000  Uiso   1.00
C60    C     0.68273   0.28754   0.04716   0.00000  Uiso   1.00
C61    C     0.80895   0.36547   0.06905   0.00000  Uiso   1.00
C62    C     0.80632   0.45699   0.03226   0.00000  Uiso   1.00
C63    C     0.93297   0.51773   0.06105   0.00000  Uiso   1.00
C64    C     0.65528   0.28080   0.11042   0.00000  Uiso   1.00
C65    C     0.52344   0.30110   0.10840   0.00000  Uiso   1.00
C66    C     0.52071   0.29056   0.17200   0.00000  Uiso   1.00
C67    C     0.74129   0.17877   0.04188   0.00000  Uiso   1.00
C68    C     0.68175   0.11328   0.98225   0.00000  Uiso   1.00
C69    C     0.75141   0.01681   0.98816   0.00000  Uiso   1.00
H70    H     0.00940   0.20949   0.21299   0.00000  Uiso   1.00
H71    H     0.15681   0.37322   0.21020   0.00000  Uiso   1.00
H72    H     0.87396   0.21735   0.28632   0.00000  Uiso   1.00
H73    H     0.03225   0.02955   0.16019   0.00000  Uiso   1.00
H74    H     0.26523   0.56790   0.17920   0.00000  Uiso   1.00
H75    H     0.66882   0.23921   0.33970   0.00000  Uiso   1.00
H76    H     0.00260   0.84319   0.07373   0.00000  Uiso   1.00
H77    H     0.58564   0.31074   0.99788   0.00000  Uiso   1.00
H78    H     0.70980   0.48002   0.98327   0.00000  Uiso   1.00
H79    H     0.42696   0.32415   0.05940   0.00000  Uiso   1.00
H80    H     0.58525   0.13636   0.93327   0.00000  Uiso   1.00
H81    H     0.90242   0.65459   0.99502   0.00000  Uiso   1.00
H82    H     0.30601   0.32589   0.15552   0.00000  Uiso   1.00
H83    H     0.63980   0.92988   0.88955   0.00000  Uiso   1.00
O84    O     0.17313   0.72080   0.08140   0.00000  Uiso   1.00
O85    O     0.39066   0.28955   0.29196   0.00000  Uiso   1.00
O86    O     0.82858   0.76999   0.94302   0.00000  Uiso   1.00
N87    N     0.16281   0.56506   0.13785   0.00000  Uiso   1.00
N88    N     0.60521   0.25777   0.28791   0.00000  Uiso   1.00
N89    N     0.91725   0.88751   0.03926   0.00000  Uiso   1.00
N90    N     0.96759   0.61171   0.03874   0.00000  Uiso   1.00
N91    N     0.40999   0.30441   0.18880   0.00000  Uiso   1.00
N92    N     0.72203   0.93416   0.94015   0.00000  Uiso   1.00
C93    C     0.91232   0.26731   0.66371   0.00000  Uiso   1.00
C94    C     0.93365   0.16432   0.63236   0.00000  Uiso   1.00
C95    C     0.06033   0.10370   0.66120   0.00000  Uiso   1.00
C96    C     0.05790   0.01212   0.62447   0.00000  Uiso   1.00
C97    C     0.10997   0.85670   0.58543   0.00000  Uiso   1.00
C98    C     0.77998   0.24900   0.67372   0.00000  Uiso   1.00
C99    C     0.77745   0.25958   0.73734   0.00000  Uiso   1.00
C100   C     0.64564   0.23929   0.73542   0.00000  Uiso   1.00
C101   C     0.45910   0.21541   0.76059   0.00000  Uiso   1.00
C102   C     0.86599   0.35103   0.60519   0.00000  Uiso   1.00
C103   C     0.93576   0.44742   0.61120   0.00000  Uiso   1.00
C104   C     0.87634   0.51304   0.55158   0.00000  Uiso   1.00
C105   C     0.82335   0.64758   0.47035   0.00000  Uiso   1.00
C106   C     0.68273   0.21246   0.54716   0.00000  Uiso   1.00
C107   C     0.80895   0.13453   0.56905   0.00000  Uiso   1.00
C108   C     0.80632   0.04301   0.53226   0.00000  Uiso   1.00
C109   C     0.93297   0.98227   0.56105   0.00000  Uiso   1.00
C110   C     0.65528   0.21920   0.61042   0.00000  Uiso   1.00
C111   C     0.52344   0.19890   0.60840   0.00000  Uiso   1.00
C112   C     0.52071   0.20944   0.67200   0.00000  Uiso   1.00
C113   C     0.74129   0.32123   0.54188   0.00000  Uiso   1.00
C114   C     0.68175   0.38672   0.48225   0.00000  Uiso   1.00
C115   C     0.75141   0.48319   0.48816   0.00000  Uiso   1.00
H116   H     0.00940   0.29051   0.71299   0.00000  Uiso   1.00
H117   H     0.15681   0.12678   0.71020   0.00000  Uiso   1.00
H118   H     0.87396   0.28265   0.78632   0.00000  Uiso   1.00
H119   H     0.03225   0.47045   0.66019   0.00000  Uiso   1.00
H120   H     0.26523   0.93210   0.67920   0.00000  Uiso   1.00
H121   H     0.66882   0.26079   0.83970   0.00000  Uiso   1.00
H122   H     0.00260   0.65681   0.57373   0.00000  Uiso   1.00
H123   H     0.58564   0.18926   0.49788   0.00000  Uiso   1.00
H124   H     0.70980   0.01998   0.48327   0.00000  Uiso   1.00
H125   H     0.42696   0.17585   0.55940   0.00000  Uiso   1.00
H126   H     0.58525   0.36364   0.43327   0.00000  Uiso   1.00
H127   H     0.90242   0.84541   0.49502   0.00000  Uiso   1.00
H128   H     0.30601   0.17411   0.65552   0.00000  Uiso   1.00
H129   H     0.63980   0.57012   0.38955   0.00000  Uiso   1.00
O130   O     0.17313   0.77920   0.58140   0.00000  Uiso   1.00
O131   O     0.39066   0.21045   0.79196   0.00000  Uiso   1.00
O132   O     0.82858   0.73001   0.44302   0.00000  Uiso   1.00
N133   N     0.16281   0.93494   0.63785   0.00000  Uiso   1.00
N134   N     0.60521   0.24223   0.78791   0.00000  Uiso   1.00
N135   N     0.91725   0.61249   0.53926   0.00000  Uiso   1.00
N136   N     0.96759   0.88829   0.53874   0.00000  Uiso   1.00
N137   N     0.40999   0.19559   0.68880   0.00000  Uiso   1.00
N138   N     0.72203   0.56584   0.44015   0.00000  Uiso   1.00
C139   C     0.08768   0.76731   0.83629   0.00000  Uiso   1.00
C140   C     0.06635   0.66432   0.86764   0.00000  Uiso   1.00
C141   C     0.93967   0.60370   0.83880   0.00000  Uiso   1.00
C142   C     0.94210   0.51212   0.87553   0.00000  Uiso   1.00
C143   C     0.89003   0.35670   0.91457   0.00000  Uiso   1.00
C144   C     0.22002   0.74900   0.82628   0.00000  Uiso   1.00
C145   C     0.22255   0.75958   0.76266   0.00000  Uiso   1.00
C146   C     0.35436   0.73929   0.76458   0.00000  Uiso   1.00
C147   C     0.54090   0.71541   0.73941   0.00000  Uiso   1.00
C148   C     0.13401   0.85103   0.89481   0.00000  Uiso   1.00
C149   C     0.06424   0.94742   0.88880   0.00000  Uiso   1.00
C150   C     0.12366   0.01304   0.94842   0.00000  Uiso   1.00
C151   C     0.17665   0.14758   0.02965   0.00000  Uiso   1.00
C152   C     0.31727   0.71246   0.95284   0.00000  Uiso   1.00
C153   C     0.19105   0.63453   0.93095   0.00000  Uiso   1.00
C154   C     0.19368   0.54301   0.96774   0.00000  Uiso   1.00
C155   C     0.06703   0.48227   0.93895   0.00000  Uiso   1.00
C156   C     0.34472   0.71920   0.88958   0.00000  Uiso   1.00
C157   C     0.47656   0.69890   0.89160   0.00000  Uiso   1.00
C158   C     0.47929   0.70944   0.82800   0.00000  Uiso   1.00
C159   C     0.25871   0.82123   0.95812   0.00000  Uiso   1.00
C160   C     0.31825   0.88672   0.01775   0.00000  Uiso   1.00
C161   C     0.24859   0.98319   0.01184   0.00000  Uiso   1.00
H162   H     0.99060   0.79051   0.78701   0.00000  Uiso   1.00
H163   H     0.84319   0.62678   0.78980   0.00000  Uiso   1.00
H164   H     0.12604   0.78265   0.71368   0.00000  Uiso   1.00
H165   H     0.96775   0.97045   0.83981   0.00000  Uiso   1.00
H166   H     0.73477   0.43210   0.82080   0.00000  Uiso   1.00
H167   H     0.33118   0.76079   0.66030   0.00000  Uiso   1.00
H168   H     0.99740   0.15681   0.92627   0.00000  Uiso   1.00
H169   H     0.41436   0.68926   0.00212   0.00000  Uiso   1.00
H170   H     0.29020   0.51998   0.01673   0.00000  Uiso   1.00
H171   H     0.57304   0.67585   0.94060   0.00000  Uiso   1.00
H172   H     0.41475   0.86364   0.06673   0.00000  Uiso   1.00
H173   H     0.09758   0.34541   0.00498   0.00000  Uiso   1.00
H174   H     0.69399   0.67411   0.84448   0.00000  Uiso   1.00
H175   H     0.36020   0.07012   0.11045   0.00000  Uiso   1.00
O176   O     0.82687   0.27920   0.91860   0.00000  Uiso   1.00
O177   O     0.60934   0.71045   0.70804   0.00000  Uiso   1.00
O178   O     0.17142   0.23001   0.05698   0.00000  Uiso   1.00
N179   N     0.83719   0.43494   0.86215   0.00000  Uiso   1.00
N180   N     0.39479   0.74223   0.71209   0.00000  Uiso   1.00
N181   N     0.08275   0.11249   0.96074   0.00000  Uiso   1.00
N182   N     0.03241   0.38829   0.96126   0.00000  Uiso   1.00
N183   N     0.59001   0.69559   0.81120   0.00000  Uiso   1.00
N184   N     0.27797   0.06584   0.05985   0.00000  Uiso   1.00
