data_job_03499
_audit_creation_date              2018-12-19
_audit_creation_method            'Materials Studio'
_symmetry_space_group_name_H-M    'P1'
_symmetry_Int_Tables_number       1
_symmetry_cell_setting            triclinic
loop_
_symmetry_equiv_pos_as_xyz
  x,y,z
_cell_length_a                    27.7104
_cell_length_b                    12.8454
_cell_length_c                    12.3422
_cell_angle_alpha                 90.0000
_cell_angle_beta                  52.1751
_cell_angle_gamma                 90.0000
loop_
_atom_site_label
_atom_site_type_symbol
_atom_site_fract_x
_atom_site_fract_y
_atom_site_fract_z
_atom_site_U_iso_or_equiv
_atom_site_adp_type
_atom_site_occupancy
C1     C     0.80588   0.43035   0.06414   0.00000  Uiso   1.00
C2     C     0.84341   0.48986   0.92880   0.00000  Uiso   1.00
C3     C     0.86381   0.45071   0.80235   0.00000  Uiso   1.00
C4     C     0.89750   0.51752   0.69078   0.00000  Uiso   1.00
C5     C     0.95385   0.59435   0.47842   0.00000  Uiso   1.00
C6     C     0.84208   0.43553   0.11973   0.00000  Uiso   1.00
C7     C     0.86135   0.35068   0.15384   0.00000  Uiso   1.00
C8     C     0.89392   0.37176   0.20302   0.00000  Uiso   1.00
C9     C     0.94816   0.36423   0.28718   0.00000  Uiso   1.00
C10    C     0.74830   0.49470   0.16218   0.00000  Uiso   1.00
C11    C     0.68873   0.45961   0.23201   0.00000  Uiso   1.00
C12    C     0.64234   0.53050   0.31695   0.00000  Uiso   1.00
C13    C     0.55098   0.61484   0.46702   0.00000  Uiso   1.00
C14    C     0.82942   0.61864   0.09085   0.00000  Uiso   1.00
C15    C     0.85620   0.59213   0.94331   0.00000  Uiso   1.00
C16    C     0.88986   0.65902   0.83190   0.00000  Uiso   1.00
C17    C     0.91031   0.61997   0.70531   0.00000  Uiso   1.00
C18    C     0.85486   0.53779   0.13424   0.00000  Uiso   1.00
C19    C     0.88740   0.55900   0.18339   0.00000  Uiso   1.00
C20    C     0.90673   0.47421   0.21755   0.00000  Uiso   1.00
C21    C     0.76109   0.59697   0.17669   0.00000  Uiso   1.00
C22    C     0.71478   0.66792   0.26155   0.00000  Uiso   1.00
C23    C     0.65515   0.63295   0.33149   0.00000  Uiso   1.00
H24    H     0.79592   0.35073   0.05285   0.00000  Uiso   1.00
H25    H     0.85391   0.37156   0.79117   0.00000  Uiso   1.00
H26    H     0.85145   0.27155   0.14261   0.00000  Uiso   1.00
H27    H     0.67885   0.38046   0.22076   0.00000  Uiso   1.00
H28    H     0.92386   0.43973   0.50743   0.00000  Uiso   1.00
H29    H     0.91864   0.22887   0.24852   0.00000  Uiso   1.00
H30    H     0.55468   0.45852   0.41332   0.00000  Uiso   1.00
H31    H     0.83938   0.69826   0.10214   0.00000  Uiso   1.00
H32    H     0.89975   0.73816   0.84316   0.00000  Uiso   1.00
H33    H     0.89729   0.63815   0.19461   0.00000  Uiso   1.00
H34    H     0.72469   0.74705   0.27275   0.00000  Uiso   1.00
H35    H     0.96107   0.73727   0.54963   0.00000  Uiso   1.00
H36    H     0.95585   0.52641   0.29073   0.00000  Uiso   1.00
H37    H     0.59190   0.75606   0.45552   0.00000  Uiso   1.00
O38    O     0.98141   0.60847   0.35727   0.00000  Uiso   1.00
O39    O     0.97456   0.33182   0.32957   0.00000  Uiso   1.00
O40    O     0.49706   0.63312   0.54577   0.00000  Uiso   1.00
N41    N     0.92432   0.50429   0.55291   0.00000  Uiso   1.00
N42    N     0.91945   0.30714   0.24576   0.00000  Uiso   1.00
N43    N     0.57918   0.52184   0.39986   0.00000  Uiso   1.00
N44    N     0.94434   0.66440   0.57562   0.00000  Uiso   1.00
N45    N     0.93948   0.46725   0.26847   0.00000  Uiso   1.00
N46    N     0.59920   0.68195   0.42257   0.00000  Uiso   1.00
C47    C     0.19412   0.93035   0.43586   0.00000  Uiso   1.00
C48    C     0.15659   0.98986   0.57120   0.00000  Uiso   1.00
C49    C     0.13619   0.95071   0.69765   0.00000  Uiso   1.00
C50    C     0.10250   0.01752   0.80922   0.00000  Uiso   1.00
C51    C     0.04615   0.09435   0.02158   0.00000  Uiso   1.00
C52    C     0.15792   0.93553   0.38027   0.00000  Uiso   1.00
C53    C     0.13865   0.85068   0.34616   0.00000  Uiso   1.00
C54    C     0.10608   0.87176   0.29698   0.00000  Uiso   1.00
C55    C     0.05184   0.86423   0.21282   0.00000  Uiso   1.00
C56    C     0.25170   0.99470   0.33782   0.00000  Uiso   1.00
C57    C     0.31127   0.95961   0.26799   0.00000  Uiso   1.00
C58    C     0.35766   0.03050   0.18305   0.00000  Uiso   1.00
C59    C     0.44902   0.11484   0.03298   0.00000  Uiso   1.00
C60    C     0.17058   0.11864   0.40915   0.00000  Uiso   1.00
C61    C     0.14380   0.09213   0.55669   0.00000  Uiso   1.00
C62    C     0.11014   0.15902   0.66810   0.00000  Uiso   1.00
C63    C     0.08969   0.11997   0.79469   0.00000  Uiso   1.00
C64    C     0.14514   0.03779   0.36576   0.00000  Uiso   1.00
C65    C     0.11260   0.05900   0.31661   0.00000  Uiso   1.00
C66    C     0.09327   0.97421   0.28245   0.00000  Uiso   1.00
C67    C     0.23891   0.09697   0.32331   0.00000  Uiso   1.00
C68    C     0.28522   0.16792   0.23845   0.00000  Uiso   1.00
C69    C     0.34485   0.13295   0.16851   0.00000  Uiso   1.00
H70    H     0.20408   0.85073   0.44715   0.00000  Uiso   1.00
H71    H     0.14609   0.87156   0.70883   0.00000  Uiso   1.00
H72    H     0.14855   0.77155   0.35739   0.00000  Uiso   1.00
H73    H     0.32115   0.88046   0.27924   0.00000  Uiso   1.00
H74    H     0.07614   0.93973   0.99257   0.00000  Uiso   1.00
H75    H     0.08136   0.72887   0.25148   0.00000  Uiso   1.00
H76    H     0.44532   0.95852   0.08668   0.00000  Uiso   1.00
H77    H     0.16062   0.19826   0.39786   0.00000  Uiso   1.00
H78    H     0.10025   0.23816   0.65684   0.00000  Uiso   1.00
H79    H     0.10271   0.13815   0.30539   0.00000  Uiso   1.00
H80    H     0.27531   0.24705   0.22725   0.00000  Uiso   1.00
H81    H     0.03893   0.23727   0.95037   0.00000  Uiso   1.00
H82    H     0.04415   0.02641   0.20927   0.00000  Uiso   1.00
H83    H     0.40810   0.25606   0.04448   0.00000  Uiso   1.00
O84    O     0.01859   0.10847   0.14273   0.00000  Uiso   1.00
O85    O     0.02544   0.83182   0.17043   0.00000  Uiso   1.00
O86    O     0.50294   0.13312   0.95423   0.00000  Uiso   1.00
N87    N     0.07568   0.00429   0.94709   0.00000  Uiso   1.00
N88    N     0.08055   0.80714   0.25424   0.00000  Uiso   1.00
N89    N     0.42082   0.02184   0.10014   0.00000  Uiso   1.00
N90    N     0.05566   0.16440   0.92438   0.00000  Uiso   1.00
N91    N     0.06052   0.96725   0.23153   0.00000  Uiso   1.00
N92    N     0.40080   0.18195   0.07743   0.00000  Uiso   1.00
C93    C     0.19412   0.56965   0.93586   0.00000  Uiso   1.00
C94    C     0.15659   0.51014   0.07120   0.00000  Uiso   1.00
C95    C     0.13619   0.54929   0.19765   0.00000  Uiso   1.00
C96    C     0.10250   0.48248   0.30922   0.00000  Uiso   1.00
C97    C     0.04615   0.40565   0.52158   0.00000  Uiso   1.00
C98    C     0.15792   0.56447   0.88027   0.00000  Uiso   1.00
C99    C     0.13865   0.64932   0.84616   0.00000  Uiso   1.00
C100   C     0.10608   0.62824   0.79698   0.00000  Uiso   1.00
C101   C     0.05184   0.63577   0.71282   0.00000  Uiso   1.00
C102   C     0.25170   0.50530   0.83782   0.00000  Uiso   1.00
C103   C     0.31127   0.54039   0.76799   0.00000  Uiso   1.00
C104   C     0.35766   0.46950   0.68305   0.00000  Uiso   1.00
C105   C     0.44902   0.38516   0.53298   0.00000  Uiso   1.00
C106   C     0.17058   0.38136   0.90915   0.00000  Uiso   1.00
C107   C     0.14380   0.40787   0.05669   0.00000  Uiso   1.00
C108   C     0.11014   0.34098   0.16810   0.00000  Uiso   1.00
C109   C     0.08969   0.38003   0.29469   0.00000  Uiso   1.00
C110   C     0.14514   0.46221   0.86576   0.00000  Uiso   1.00
C111   C     0.11260   0.44100   0.81661   0.00000  Uiso   1.00
C112   C     0.09327   0.52579   0.78245   0.00000  Uiso   1.00
C113   C     0.23891   0.40303   0.82331   0.00000  Uiso   1.00
C114   C     0.28522   0.33208   0.73845   0.00000  Uiso   1.00
C115   C     0.34485   0.36705   0.66851   0.00000  Uiso   1.00
H116   H     0.20408   0.64927   0.94715   0.00000  Uiso   1.00
H117   H     0.14609   0.62844   0.20883   0.00000  Uiso   1.00
H118   H     0.14855   0.72845   0.85739   0.00000  Uiso   1.00
H119   H     0.32115   0.61954   0.77924   0.00000  Uiso   1.00
H120   H     0.07614   0.56027   0.49257   0.00000  Uiso   1.00
H121   H     0.08136   0.77113   0.75148   0.00000  Uiso   1.00
H122   H     0.44532   0.54148   0.58668   0.00000  Uiso   1.00
H123   H     0.16062   0.30174   0.89786   0.00000  Uiso   1.00
H124   H     0.10025   0.26184   0.15684   0.00000  Uiso   1.00
H125   H     0.10271   0.36185   0.80539   0.00000  Uiso   1.00
H126   H     0.27531   0.25295   0.72725   0.00000  Uiso   1.00
H127   H     0.03893   0.26273   0.45037   0.00000  Uiso   1.00
H128   H     0.04415   0.47359   0.70927   0.00000  Uiso   1.00
H129   H     0.40810   0.24394   0.54448   0.00000  Uiso   1.00
O130   O     0.01859   0.39153   0.64273   0.00000  Uiso   1.00
O131   O     0.02544   0.66818   0.67043   0.00000  Uiso   1.00
O132   O     0.50294   0.36688   0.45423   0.00000  Uiso   1.00
N133   N     0.07568   0.49571   0.44709   0.00000  Uiso   1.00
N134   N     0.08055   0.69286   0.75424   0.00000  Uiso   1.00
N135   N     0.42082   0.47816   0.60014   0.00000  Uiso   1.00
N136   N     0.05566   0.33560   0.42438   0.00000  Uiso   1.00
N137   N     0.06052   0.53275   0.73153   0.00000  Uiso   1.00
N138   N     0.40080   0.31805   0.57743   0.00000  Uiso   1.00
C139   C     0.80588   0.06965   0.56414   0.00000  Uiso   1.00
C140   C     0.84341   0.01014   0.42880   0.00000  Uiso   1.00
C141   C     0.86381   0.04929   0.30235   0.00000  Uiso   1.00
C142   C     0.89750   0.98248   0.19078   0.00000  Uiso   1.00
C143   C     0.95385   0.90565   0.97842   0.00000  Uiso   1.00
C144   C     0.84208   0.06447   0.61973   0.00000  Uiso   1.00
C145   C     0.86135   0.14932   0.65384   0.00000  Uiso   1.00
C146   C     0.89392   0.12824   0.70302   0.00000  Uiso   1.00
C147   C     0.94816   0.13577   0.78718   0.00000  Uiso   1.00
C148   C     0.74830   0.00530   0.66218   0.00000  Uiso   1.00
C149   C     0.68873   0.04039   0.73201   0.00000  Uiso   1.00
C150   C     0.64234   0.96950   0.81695   0.00000  Uiso   1.00
C151   C     0.55098   0.88516   0.96702   0.00000  Uiso   1.00
C152   C     0.82942   0.88136   0.59085   0.00000  Uiso   1.00
C153   C     0.85620   0.90787   0.44331   0.00000  Uiso   1.00
C154   C     0.88986   0.84098   0.33190   0.00000  Uiso   1.00
C155   C     0.91031   0.88003   0.20531   0.00000  Uiso   1.00
C156   C     0.85486   0.96221   0.63424   0.00000  Uiso   1.00
C157   C     0.88740   0.94100   0.68339   0.00000  Uiso   1.00
C158   C     0.90673   0.02579   0.71755   0.00000  Uiso   1.00
C159   C     0.76109   0.90303   0.67669   0.00000  Uiso   1.00
C160   C     0.71478   0.83208   0.76155   0.00000  Uiso   1.00
C161   C     0.65515   0.86705   0.83149   0.00000  Uiso   1.00
H162   H     0.79592   0.14927   0.55285   0.00000  Uiso   1.00
H163   H     0.85391   0.12844   0.29117   0.00000  Uiso   1.00
H164   H     0.85145   0.22845   0.64261   0.00000  Uiso   1.00
H165   H     0.67885   0.11954   0.72076   0.00000  Uiso   1.00
H166   H     0.92386   0.06027   0.00743   0.00000  Uiso   1.00
H167   H     0.91864   0.27113   0.74852   0.00000  Uiso   1.00
H168   H     0.55468   0.04148   0.91332   0.00000  Uiso   1.00
H169   H     0.83938   0.80174   0.60214   0.00000  Uiso   1.00
H170   H     0.89975   0.76184   0.34316   0.00000  Uiso   1.00
H171   H     0.89729   0.86185   0.69461   0.00000  Uiso   1.00
H172   H     0.72469   0.75295   0.77275   0.00000  Uiso   1.00
H173   H     0.96107   0.76273   0.04963   0.00000  Uiso   1.00
H174   H     0.95585   0.97359   0.79073   0.00000  Uiso   1.00
H175   H     0.59190   0.74394   0.95552   0.00000  Uiso   1.00
O176   O     0.98141   0.89153   0.85727   0.00000  Uiso   1.00
O177   O     0.97456   0.16818   0.82957   0.00000  Uiso   1.00
O178   O     0.49706   0.86688   0.04577   0.00000  Uiso   1.00
N179   N     0.92432   0.99571   0.05291   0.00000  Uiso   1.00
N180   N     0.91945   0.19286   0.74576   0.00000  Uiso   1.00
N181   N     0.57918   0.97816   0.89986   0.00000  Uiso   1.00
N182   N     0.94434   0.83560   0.07562   0.00000  Uiso   1.00
N183   N     0.93948   0.03275   0.76847   0.00000  Uiso   1.00
N184   N     0.59920   0.81805   0.92257   0.00000  Uiso   1.00
