data_job_06667
_audit_creation_date              2018-12-19
_audit_creation_method            'Materials Studio'
_symmetry_space_group_name_H-M    'P1'
_symmetry_Int_Tables_number       1
_symmetry_cell_setting            triclinic
loop_
_symmetry_equiv_pos_as_xyz
  x,y,z
_cell_length_a                    20.5383
_cell_length_b                    21.2012
_cell_length_c                    21.6894
_cell_angle_alpha                 105.3420
_cell_angle_beta                  105.6470
_cell_angle_gamma                 107.8850
loop_
_atom_site_label
_atom_site_type_symbol
_atom_site_fract_x
_atom_site_fract_y
_atom_site_fract_z
_atom_site_U_iso_or_equiv
_atom_site_adp_type
_atom_site_occupancy
C1     C     0.00692   0.17280   0.28322   0.00000  Uiso   1.00
C2     C     0.00374   0.24526   0.29079   0.00000  Uiso   1.00
C3     C     0.05913   0.30489   0.29394   0.00000  Uiso   1.00
C4     C     0.04557   0.36614   0.30093   0.00000  Uiso   1.00
C5     C     0.05078   0.47845   0.31216   0.00000  Uiso   1.00
C6     C     0.99363   0.15713   0.34451   0.00000  Uiso   1.00
C7     C     0.04050   0.14265   0.39280   0.00000  Uiso   1.00
C8     C     0.01843   0.12971   0.44501   0.00000  Uiso   1.00
C9     C     0.00791   0.10514   0.53960   0.00000  Uiso   1.00
C10    C     0.93941   0.11788   0.21905   0.00000  Uiso   1.00
C11    C     0.94069   0.07039   0.16186   0.00000  Uiso   1.00
C12    C     0.87297   0.02439   0.10845   0.00000  Uiso   1.00
C13    C     0.77827   0.93888   0.00824   0.00000  Uiso   1.00
C14    C     0.88437   0.17555   0.29005   0.00000  Uiso   1.00
C15    C     0.93718   0.24676   0.29450   0.00000  Uiso   1.00
C16    C     0.92353   0.30793   0.30149   0.00000  Uiso   1.00
C17    C     0.97889   0.36764   0.30464   0.00000  Uiso   1.00
C18    C     0.92707   0.15863   0.34822   0.00000  Uiso   1.00
C19    C     0.90491   0.14570   0.40036   0.00000  Uiso   1.00
C20    C     0.95174   0.13121   0.44872   0.00000  Uiso   1.00
C21    C     0.87284   0.11938   0.22275   0.00000  Uiso   1.00
C22    C     0.80510   0.07344   0.16942   0.00000  Uiso   1.00
C23    C     0.80628   0.02588   0.11216   0.00000  Uiso   1.00
H24    H     0.05875   0.17163   0.28034   0.00000  Uiso   1.00
H25    H     0.11064   0.30371   0.29107   0.00000  Uiso   1.00
H26    H     0.09201   0.14149   0.38992   0.00000  Uiso   1.00
H27    H     0.99222   0.06925   0.15901   0.00000  Uiso   1.00
H28    H     0.13882   0.45081   0.30463   0.00000  Uiso   1.00
H29    H     0.09953   0.10875   0.51304   0.00000  Uiso   1.00
H30    H     0.88910   0.95639   0.02613   0.00000  Uiso   1.00
H31    H     0.83254   0.17671   0.29294   0.00000  Uiso   1.00
H32    H     0.87202   0.30908   0.30436   0.00000  Uiso   1.00
H33    H     0.85339   0.14686   0.40321   0.00000  Uiso   1.00
H34    H     0.75360   0.07461   0.17230   0.00000  Uiso   1.00
H35    H     0.94515   0.45517   0.31542   0.00000  Uiso   1.00
H36    H     0.90586   0.11310   0.52383   0.00000  Uiso   1.00
H37    H     0.69543   0.96075   0.03692   0.00000  Uiso   1.00
O38    O     0.07204   0.53998   0.31734   0.00000  Uiso   1.00
O39    O     0.02050   0.09118   0.59075   0.00000  Uiso   1.00
O40    O     0.74442   0.89131   0.95194   0.00000  Uiso   1.00
N41    N     0.08782   0.43367   0.30559   0.00000  Uiso   1.00
N42    N     0.05109   0.11387   0.50045   0.00000  Uiso   1.00
N43    N     0.85436   0.97142   0.04524   0.00000  Uiso   1.00
N44    N     0.98360   0.43601   0.31139   0.00000  Uiso   1.00
N45    N     0.94688   0.11621   0.50625   0.00000  Uiso   1.00
N46    N     0.75014   0.97376   0.05104   0.00000  Uiso   1.00
C47    C     0.32873   0.96684   0.15519   0.00000  Uiso   1.00
C48    C     0.30815   0.96122   0.21663   0.00000  Uiso   1.00
C49    C     0.30051   0.01454   0.26359   0.00000  Uiso   1.00
C50    C     0.28139   0.99894   0.31621   0.00000  Uiso   1.00
C51    C     0.25116   0.00035   0.41081   0.00000  Uiso   1.00
C52    C     0.39735   0.95067   0.16427   0.00000  Uiso   1.00
C53    C     0.46471   0.99512   0.16720   0.00000  Uiso   1.00
C54    C     0.52067   0.97063   0.17573   0.00000  Uiso   1.00
C55    C     0.62891   0.95564   0.18899   0.00000  Uiso   1.00
C56    C     0.26672   0.90465   0.09147   0.00000  Uiso   1.00
C57    C     0.22425   0.91041   0.03318   0.00000  Uiso   1.00
C58    C     0.17024   0.84716   0.98041   0.00000  Uiso   1.00
C59    C     0.07566   0.76072   0.88064   0.00000  Uiso   1.00
C60    C     0.30834   0.84430   0.16511   0.00000  Uiso   1.00
C61    C     0.29708   0.89466   0.22202   0.00000  Uiso   1.00
C62    C     0.27796   0.87897   0.27457   0.00000  Uiso   1.00
C63    C     0.27030   0.93226   0.32160   0.00000  Uiso   1.00
C64    C     0.38628   0.88411   0.16966   0.00000  Uiso   1.00
C65    C     0.44215   0.85954   0.17818   0.00000  Uiso   1.00
C66    C     0.50958   0.90395   0.18113   0.00000  Uiso   1.00
C67    C     0.25564   0.83809   0.09686   0.00000  Uiso   1.00
C68    C     0.20169   0.77483   0.04416   0.00000  Uiso   1.00
C69    C     0.15915   0.78048   0.98581   0.00000  Uiso   1.00
H70    H     0.33735   0.01866   0.15099   0.00000  Uiso   1.00
H71    H     0.30910   0.06605   0.25941   0.00000  Uiso   1.00
H72    H     0.47326   0.04662   0.16302   0.00000  Uiso   1.00
H73    H     0.23284   0.96192   0.02903   0.00000  Uiso   1.00
H74    H     0.27291   0.08925   0.38200   0.00000  Uiso   1.00
H75    H     0.61905   0.04828   0.17874   0.00000  Uiso   1.00
H76    H     0.11208   0.86967   0.89619   0.00000  Uiso   1.00
H77    H     0.29972   0.79248   0.16930   0.00000  Uiso   1.00
H78    H     0.26939   0.82745   0.27873   0.00000  Uiso   1.00
H79    H     0.43356   0.80803   0.18234   0.00000  Uiso   1.00
H80    H     0.19314   0.72333   0.04835   0.00000  Uiso   1.00
H81    H     0.24069   0.89560   0.39768   0.00000  Uiso   1.00
H82    H     0.58683   0.85463   0.19442   0.00000  Uiso   1.00
H83    H     0.07986   0.67601   0.91187   0.00000  Uiso   1.00
O84    O     0.23756   0.01952   0.46150   0.00000  Uiso   1.00
O85    O     0.69167   0.96577   0.19482   0.00000  Uiso   1.00
O86    O     0.02653   0.73143   0.82413   0.00000  Uiso   1.00
N87    N     0.26948   0.03887   0.37066   0.00000  Uiso   1.00
N88    N     0.59310   0.00057   0.18064   0.00000  Uiso   1.00
N89    N     0.11913   0.83358   0.91647   0.00000  Uiso   1.00
N90    N     0.25214   0.93466   0.37910   0.00000  Uiso   1.00
N91    N     0.57576   0.89636   0.18908   0.00000  Uiso   1.00
N92    N     0.10180   0.72938   0.92491   0.00000  Uiso   1.00
C93    C     0.15383   0.29575   0.94955   0.00000  Uiso   1.00
C94    C     0.23170   0.30585   0.95301   0.00000  Uiso   1.00
C95    C     0.28717   0.30662   0.00694   0.00000  Uiso   1.00
C96    C     0.35460   0.31659   0.00030   0.00000  Uiso   1.00
C97    C     0.47378   0.33097   0.01459   0.00000  Uiso   1.00
C98    C     0.14333   0.36084   0.93908   0.00000  Uiso   1.00
C99    C     0.12448   0.40784   0.98128   0.00000  Uiso   1.00
C100   C     0.11751   0.46410   0.96290   0.00000  Uiso   1.00
C101   C     0.09942   0.56382   0.95552   0.00000  Uiso   1.00
C102   C     0.10096   0.23175   0.88276   0.00000  Uiso   1.00
C103   C     0.04646   0.17020   0.87762   0.00000  Uiso   1.00
C104   C     0.00381   0.11777   0.81182   0.00000  Uiso   1.00
C105   C     0.91994   0.01705   0.71700   0.00000  Uiso   1.00
C106   C     0.17496   0.31208   0.84185   0.00000  Uiso   1.00
C107   C     0.24318   0.31473   0.89451   0.00000  Uiso   1.00
C108   C     0.31054   0.32470   0.88778   0.00000  Uiso   1.00
C109   C     0.36610   0.32548   0.94169   0.00000  Uiso   1.00
C110   C     0.15480   0.36972   0.88058   0.00000  Uiso   1.00
C111   C     0.14785   0.42592   0.86213   0.00000  Uiso   1.00
C112   C     0.12900   0.47299   0.90430   0.00000  Uiso   1.00
C113   C     0.11243   0.24062   0.82426   0.00000  Uiso   1.00
C114   C     0.06985   0.18828   0.75846   0.00000  Uiso   1.00
C115   C     0.01530   0.12666   0.75321   0.00000  Uiso   1.00
H116   H     0.14490   0.28884   0.99510   0.00000  Uiso   1.00
H117   H     0.27827   0.29976   0.05221   0.00000  Uiso   1.00
H118   H     0.11559   0.40096   0.02655   0.00000  Uiso   1.00
H119   H     0.03760   0.16335   0.92290   0.00000  Uiso   1.00
H120   H     0.43120   0.31580   0.08974   0.00000  Uiso   1.00
H121   H     0.08817   0.52917   0.03562   0.00000  Uiso   1.00
H122   H     0.92370   0.02814   0.81705   0.00000  Uiso   1.00
H123   H     0.18389   0.31899   0.79631   0.00000  Uiso   1.00
H124   H     0.31941   0.33156   0.84251   0.00000  Uiso   1.00
H125   H     0.15673   0.43276   0.81685   0.00000  Uiso   1.00
H126   H     0.07874   0.19516   0.71320   0.00000  Uiso   1.00
H127   H     0.46459   0.34162   0.91954   0.00000  Uiso   1.00
H128   H     0.12156   0.55499   0.86542   0.00000  Uiso   1.00
H129   H     0.95709   0.05396   0.64685   0.00000  Uiso   1.00
O130   O     0.53634   0.33646   0.03864   0.00000  Uiso   1.00
O131   O     0.08629   0.61638   0.96762   0.00000  Uiso   1.00
O132   O     0.87052   0.95904   0.68087   0.00000  Uiso   1.00
N133   N     0.42046   0.32014   0.04334   0.00000  Uiso   1.00
N134   N     0.09976   0.51963   0.99275   0.00000  Uiso   1.00
N135   N     0.94598   0.05122   0.78840   0.00000  Uiso   1.00
N136   N     0.43842   0.33403   0.95176   0.00000  Uiso   1.00
N137   N     0.11772   0.53352   0.90116   0.00000  Uiso   1.00
N138   N     0.96395   0.06511   0.69682   0.00000  Uiso   1.00
C139   C     0.47383   0.80542   0.64296   0.00000  Uiso   1.00
C140   C     0.48025   0.81679   0.71714   0.00000  Uiso   1.00
C141   C     0.54340   0.83066   0.77180   0.00000  Uiso   1.00
C142   C     0.53799   0.83943   0.83571   0.00000  Uiso   1.00
C143   C     0.55804   0.85786   0.94957   0.00000  Uiso   1.00
C144   C     0.44759   0.86068   0.62522   0.00000  Uiso   1.00
C145   C     0.48327   0.91145   0.60257   0.00000  Uiso   1.00
C146   C     0.45036   0.95717   0.58909   0.00000  Uiso   1.00
C147   C     0.41969   0.04372   0.56017   0.00000  Uiso   1.00
C148   C     0.41010   0.73258   0.59768   0.00000  Uiso   1.00
C149   C     0.41425   0.67564   0.55186   0.00000  Uiso   1.00
C150   C     0.34976   0.61350   0.51518   0.00000  Uiso   1.00
C151   C     0.26088   0.50115   0.44351   0.00000  Uiso   1.00
C152   C     0.35192   0.79633   0.65925   0.00000  Uiso   1.00
C153   C     0.41404   0.81185   0.72599   0.00000  Uiso   1.00
C154   C     0.40852   0.82060   0.78983   0.00000  Uiso   1.00
C155   C     0.47165   0.83448   0.84458   0.00000  Uiso   1.00
C156   C     0.38138   0.85575   0.63407   0.00000  Uiso   1.00
C157   C     0.34840   0.90140   0.62060   0.00000  Uiso   1.00
C158   C     0.38403   0.95223   0.59795   0.00000  Uiso   1.00
C159   C     0.34388   0.72764   0.60653   0.00000  Uiso   1.00
C160   C     0.27938   0.66558   0.56990   0.00000  Uiso   1.00
C161   C     0.28343   0.60856   0.52404   0.00000  Uiso   1.00
H162   H     0.52537   0.80927   0.63606   0.00000  Uiso   1.00
H163   H     0.59463   0.83448   0.76493   0.00000  Uiso   1.00
H164   H     0.53451   0.91526   0.59572   0.00000  Uiso   1.00
H165   H     0.46550   0.67948   0.54503   0.00000  Uiso   1.00
H166   H     0.64222   0.86028   0.91172   0.00000  Uiso   1.00
H167   H     0.51544   0.03058   0.55491   0.00000  Uiso   1.00
H168   H     0.36991   0.53340   0.44800   0.00000  Uiso   1.00
H169   H     0.30037   0.79249   0.66614   0.00000  Uiso   1.00
H170   H     0.35728   0.81678   0.79667   0.00000  Uiso   1.00
H171   H     0.29716   0.89756   0.62746   0.00000  Uiso   1.00
H172   H     0.22815   0.66178   0.57676   0.00000  Uiso   1.00
H173   H     0.44958   0.84592   0.93748   0.00000  Uiso   1.00
H174   H     0.32280   0.01622   0.58066   0.00000  Uiso   1.00
H175   H     0.17727   0.51904   0.47376   0.00000  Uiso   1.00
O176   O     0.58740   0.86940   0.00992   0.00000  Uiso   1.00
O177   O     0.42107   0.09282   0.54179   0.00000  Uiso   1.00
O178   O     0.23014   0.44054   0.40153   0.00000  Uiso   1.00
N179   N     0.58907   0.85355   0.89987   0.00000  Uiso   1.00
N180   N     0.47054   0.01278   0.56628   0.00000  Uiso   1.00
N181   N     0.33448   0.54797   0.46632   0.00000  Uiso   1.00
N182   N     0.48541   0.84582   0.91372   0.00000  Uiso   1.00
N183   N     0.36688   0.00505   0.58014   0.00000  Uiso   1.00
N184   N     0.23082   0.54024   0.48018   0.00000  Uiso   1.00
C185   C     0.77649   0.64448   0.44942   0.00000  Uiso   1.00
C186   C     0.79091   0.71980   0.45046   0.00000  Uiso   1.00
C187   C     0.79269   0.77589   0.50237   0.00000  Uiso   1.00
C188   C     0.80679   0.84066   0.49368   0.00000  Uiso   1.00
C189   C     0.82741   0.95637   0.50420   0.00000  Uiso   1.00
C190   C     0.84293   0.63037   0.44177   0.00000  Uiso   1.00
C191   C     0.88843   0.61125   0.48638   0.00000  Uiso   1.00
C192   C     0.94631   0.60074   0.47037   0.00000  Uiso   1.00
C193   C     0.04765   0.57755   0.46739   0.00000  Uiso   1.00
C194   C     0.71063   0.59375   0.38220   0.00000  Uiso   1.00
C195   C     0.64490   0.54382   0.37671   0.00000  Uiso   1.00
C196   C     0.59139   0.50246   0.31054   0.00000  Uiso   1.00
C197   C     0.48733   0.42240   0.21506   0.00000  Uiso   1.00
C198   C     0.79837   0.65977   0.34166   0.00000  Uiso   1.00
C199   C     0.80280   0.72811   0.39193   0.00000  Uiso   1.00
C200   C     0.81689   0.79281   0.38315   0.00000  Uiso   1.00
C201   C     0.81869   0.84899   0.43504   0.00000  Uiso   1.00
C202   C     0.85481   0.63868   0.38325   0.00000  Uiso   1.00
C203   C     0.91263   0.62818   0.36716   0.00000  Uiso   1.00
C204   C     0.95821   0.60906   0.41174   0.00000  Uiso   1.00
C205   C     0.72251   0.60205   0.32367   0.00000  Uiso   1.00
C206   C     0.66910   0.56075   0.25749   0.00000  Uiso   1.00
C207   C     0.60330   0.51078   0.25190   0.00000  Uiso   1.00
H208   H     0.76725   0.63800   0.49499   0.00000  Uiso   1.00
H209   H     0.78350   0.76944   0.54766   0.00000  Uiso   1.00
H210   H     0.87922   0.60482   0.53167   0.00000  Uiso   1.00
H211   H     0.63573   0.53741   0.42202   0.00000  Uiso   1.00
H212   H     0.80679   0.91882   0.58026   0.00000  Uiso   1.00
H213   H     0.00860   0.57170   0.54653   0.00000  Uiso   1.00
H214   H     0.49515   0.42954   0.31530   0.00000  Uiso   1.00
H215   H     0.80762   0.66624   0.29609   0.00000  Uiso   1.00
H216   H     0.82608   0.79923   0.33785   0.00000  Uiso   1.00
H217   H     0.92181   0.63461   0.32186   0.00000  Uiso   1.00
H218   H     0.67831   0.56720   0.21221   0.00000  Uiso   1.00
H219   H     0.84135   0.94301   0.40997   0.00000  Uiso   1.00
H220   H     0.04317   0.59588   0.37624   0.00000  Uiso   1.00
H221   H     0.52971   0.45372   0.14501   0.00000  Uiso   1.00
O222   O     0.83551   0.01789   0.52618   0.00000  Uiso   1.00
O223   O     0.10028   0.56247   0.48192   0.00000  Uiso   1.00
O224   O     0.42664   0.37596   0.17856   0.00000  Uiso   1.00
N225   N     0.81237   0.90626   0.53444   0.00000  Uiso   1.00
N226   N     0.00107   0.58173   0.50291   0.00000  Uiso   1.00
N227   N     0.52103   0.44881   0.28673   0.00000  Uiso   1.00
N228   N     0.83097   0.91927   0.44281   0.00000  Uiso   1.00
N229   N     0.01966   0.59474   0.41128   0.00000  Uiso   1.00
N230   N     0.53963   0.46182   0.19510   0.00000  Uiso   1.00
C231   C     0.65840   0.48996   0.77357   0.00000  Uiso   1.00
C232   C     0.73497   0.49132   0.78165   0.00000  Uiso   1.00
C233   C     0.79324   0.54594   0.78151   0.00000  Uiso   1.00
C234   C     0.85885   0.53707   0.78962   0.00000  Uiso   1.00
C235   C     0.97669   0.54853   0.80099   0.00000  Uiso   1.00
C236   C     0.64570   0.47990   0.83707   0.00000  Uiso   1.00
C237   C     0.62890   0.52492   0.88352   0.00000  Uiso   1.00
C238   C     0.61935   0.50643   0.93828   0.00000  Uiso   1.00
C239   C     0.59854   0.50014   0.03566   0.00000  Uiso   1.00
C240   C     0.60339   0.42129   0.71205   0.00000  Uiso   1.00
C241   C     0.55099   0.41702   0.65338   0.00000  Uiso   1.00
C242   C     0.50580   0.34918   0.60289   0.00000  Uiso   1.00
C243   C     0.41929   0.25187   0.50615   0.00000  Uiso   1.00
C244   C     0.67131   0.37706   0.78823   0.00000  Uiso   1.00
C245   C     0.74198   0.43000   0.78961   0.00000  Uiso   1.00
C246   C     0.80752   0.42104   0.79773   0.00000  Uiso   1.00
C247   C     0.86587   0.47564   0.79759   0.00000  Uiso   1.00
C248   C     0.65271   0.41858   0.84503   0.00000  Uiso   1.00
C249   C     0.64318   0.40002   0.89974   0.00000  Uiso   1.00
C250   C     0.62638   0.44500   0.94626   0.00000  Uiso   1.00
C251   C     0.61040   0.35996   0.72001   0.00000  Uiso   1.00
C252   C     0.56528   0.29211   0.66960   0.00000  Uiso   1.00
C253   C     0.51283   0.28774   0.61087   0.00000  Uiso   1.00
H254   H     0.65294   0.53770   0.76737   0.00000  Uiso   1.00
H255   H     0.78779   0.59339   0.77535   0.00000  Uiso   1.00
H256   H     0.62347   0.57237   0.87734   0.00000  Uiso   1.00
H257   H     0.54558   0.46448   0.64724   0.00000  Uiso   1.00
H258   H     0.94040   0.62811   0.78773   0.00000  Uiso   1.00
H259   H     0.59389   0.58377   0.00277   0.00000  Uiso   1.00
H260   H     0.42964   0.35627   0.51755   0.00000  Uiso   1.00
H261   H     0.67677   0.32932   0.79443   0.00000  Uiso   1.00
H262   H     0.81293   0.37358   0.80389   0.00000  Uiso   1.00
H263   H     0.64861   0.35256   0.90588   0.00000  Uiso   1.00
H264   H     0.57072   0.24467   0.67578   0.00000  Uiso   1.00
H265   H     0.96080   0.44970   0.81089   0.00000  Uiso   1.00
H266   H     0.61430   0.40536   0.02593   0.00000  Uiso   1.00
H267   H     0.45005   0.17786   0.54072   0.00000  Uiso   1.00
O268   O     0.03975   0.57179   0.80507   0.00000  Uiso   1.00
O269   O     0.58513   0.51362   0.08718   0.00000  Uiso   1.00
O270   O     0.36965   0.21514   0.45059   0.00000  Uiso   1.00
N271   N     0.92651   0.58004   0.79187   0.00000  Uiso   1.00
N272   N     0.60256   0.53859   0.99292   0.00000  Uiso   1.00
N273   N     0.44898   0.32590   0.53929   0.00000  Uiso   1.00
N274   N     0.93749   0.48404   0.80433   0.00000  Uiso   1.00
N275   N     0.61354   0.44259   0.00539   0.00000  Uiso   1.00
N276   N     0.45997   0.22990   0.55176   0.00000  Uiso   1.00
C277   C     0.02583   0.87218   0.69116   0.00000  Uiso   1.00
C278   C     0.02717   0.79886   0.68236   0.00000  Uiso   1.00
C279   C     0.96888   0.73831   0.67380   0.00000  Uiso   1.00
C280   C     0.98114   0.67638   0.66659   0.00000  Uiso   1.00
C281   C     0.97285   0.56272   0.65269   0.00000  Uiso   1.00
C282   C     0.04627   0.89124   0.63389   0.00000  Uiso   1.00
C283   C     0.00404   0.90838   0.58459   0.00000  Uiso   1.00
C284   C     0.03239   0.92422   0.53659   0.00000  Uiso   1.00
C285   C     0.05377   0.95405   0.44747   0.00000  Uiso   1.00
C286   C     0.09000   0.92484   0.75888   0.00000  Uiso   1.00
C287   C     0.08455   0.97024   0.81467   0.00000  Uiso   1.00
C288   C     0.14972   0.01439   0.87189   0.00000  Uiso   1.00
C289   C     0.23900   0.09637   0.97684   0.00000  Uiso   1.00
C290   C     0.15126   0.86987   0.69357   0.00000  Uiso   1.00
C291   C     0.09530   0.79761   0.68367   0.00000  Uiso   1.00
C292   C     0.10766   0.73576   0.67647   0.00000  Uiso   1.00
C293   C     0.04940   0.67512   0.66791   0.00000  Uiso   1.00
C294   C     0.11440   0.88999   0.63520   0.00000  Uiso   1.00
C295   C     0.14282   0.90583   0.58726   0.00000  Uiso   1.00
C296   C     0.10064   0.92297   0.53790   0.00000  Uiso   1.00
C297   C     0.15813   0.92359   0.76019   0.00000  Uiso   1.00
C298   C     0.22332   0.96768   0.81734   0.00000  Uiso   1.00
C299   C     0.21797   0.01313   0.87320   0.00000  Uiso   1.00
H300   H     0.97279   0.87315   0.69013   0.00000  Uiso   1.00
H301   H     0.91616   0.73930   0.67278   0.00000  Uiso   1.00
H302   H     0.95132   0.90935   0.58359   0.00000  Uiso   1.00
H303   H     0.03182   0.97119   0.81363   0.00000  Uiso   1.00
H304   H     0.88342   0.59033   0.65410   0.00000  Uiso   1.00
H305   H     0.95757   0.94892   0.46605   0.00000  Uiso   1.00
H306   H     0.12731   0.07934   0.95114   0.00000  Uiso   1.00
H307   H     0.20430   0.86890   0.69459   0.00000  Uiso   1.00
H308   H     0.16038   0.73480   0.67749   0.00000  Uiso   1.00
H309   H     0.19554   0.90485   0.58829   0.00000  Uiso   1.00
H310   H     0.27604   0.96670   0.81833   0.00000  Uiso   1.00
H311   H     0.08164   0.58668   0.65792   0.00000  Uiso   1.00
H312   H     0.15579   0.94527   0.46986   0.00000  Uiso   1.00
H313   H     0.32553   0.07569   0.95495   0.00000  Uiso   1.00
O314   O     0.94945   0.50037   0.64465   0.00000  Uiso   1.00
O315   O     0.04674   0.97083   0.39795   0.00000  Uiso   1.00
O316   O     0.26943   0.14193   0.03437   0.00000  Uiso   1.00
N317   N     0.93610   0.60788   0.65736   0.00000  Uiso   1.00
N318   N     0.00542   0.94312   0.48154   0.00000  Uiso   1.00
N319   N     0.16412   0.06507   0.93504   0.00000  Uiso   1.00
N320   N     0.04276   0.60592   0.65941   0.00000  Uiso   1.00
N321   N     0.11208   0.94116   0.48359   0.00000  Uiso   1.00
N322   N     0.27078   0.06311   0.93710   0.00000  Uiso   1.00
C323   C     0.71799   0.04531   0.84988   0.00000  Uiso   1.00
C324   C     0.70542   0.04081   0.77599   0.00000  Uiso   1.00
C325   C     0.70066   0.98411   0.72259   0.00000  Uiso   1.00
C326   C     0.68898   0.99024   0.65874   0.00000  Uiso   1.00
C327   C     0.67044   0.97402   0.54552   0.00000  Uiso   1.00
C328   C     0.65340   0.05764   0.86453   0.00000  Uiso   1.00
C329   C     0.60490   0.01509   0.88559   0.00000  Uiso   1.00
C330   C     0.54943   0.03539   0.89628   0.00000  Uiso   1.00
C331   C     0.45017   0.04531   0.92057   0.00000  Uiso   1.00
C332   C     0.78673   0.11403   0.89649   0.00000  Uiso   1.00
C333   C     0.85033   0.11890   0.94444   0.00000  Uiso   1.00
C334   C     0.90711   0.18668   0.98205   0.00000  Uiso   1.00
C335   C     0.01485   0.28417   0.05596   0.00000  Uiso   1.00
C336   C     0.70572   0.15703   0.83144   0.00000  Uiso   1.00
C337   C     0.69876   0.10150   0.76597   0.00000  Uiso   1.00
C338   C     0.68708   0.10772   0.70219   0.00000  Uiso   1.00
C339   C     0.68230   0.05103   0.64871   0.00000  Uiso   1.00
C340   C     0.64673   0.11832   0.85452   0.00000  Uiso   1.00
C341   C     0.59133   0.13869   0.86518   0.00000  Uiso   1.00
C342   C     0.54276   0.09618   0.88625   0.00000  Uiso   1.00
C343   C     0.78007   0.17471   0.88647   0.00000  Uiso   1.00
C344   C     0.83676   0.24251   0.92402   0.00000  Uiso   1.00
C345   C     0.90043   0.24748   0.97201   0.00000  Uiso   1.00
H346   H     0.72317   0.99806   0.85769   0.00000  Uiso   1.00
H347   H     0.70581   0.93715   0.73037   0.00000  Uiso   1.00
H348   H     0.61008   0.96813   0.89335   0.00000  Uiso   1.00
H349   H     0.85547   0.07193   0.95217   0.00000  Uiso   1.00
H350   H     0.68360   0.89638   0.58478   0.00000  Uiso   1.00
H351   H     0.48175   0.96171   0.92846   0.00000  Uiso   1.00
H352   H     0.99920   0.18058   0.05251   0.00000  Uiso   1.00
H353   H     0.70053   0.20428   0.82364   0.00000  Uiso   1.00
H354   H     0.68193   0.15468   0.69445   0.00000  Uiso   1.00
H355   H     0.58619   0.18566   0.85743   0.00000  Uiso   1.00
H356   H     0.83158   0.28945   0.91626   0.00000  Uiso   1.00
H357   H     0.66421   0.07293   0.55563   0.00000  Uiso   1.00
H358   H     0.46236   0.13826   0.89931   0.00000  Uiso   1.00
H359   H     0.97981   0.35713   0.02336   0.00000  Uiso   1.00
O360   O     0.66205   0.94830   0.48583   0.00000  Uiso   1.00
O361   O     0.39725   0.03402   0.93673   0.00000  Uiso   1.00
O362   O     0.07613   0.32117   0.09948   0.00000  Uiso   1.00
N363   N     0.68160   0.94474   0.59566   0.00000  Uiso   1.00
N364   N     0.49288   0.00581   0.91696   0.00000  Uiso   1.00
N365   N     0.97665   0.21044   0.03295   0.00000  Uiso   1.00
N366   N     0.67117   0.03974   0.57997   0.00000  Uiso   1.00
N367   N     0.48245   0.10082   0.90127   0.00000  Uiso   1.00
N368   N     0.96621   0.30545   0.01727   0.00000  Uiso   1.00
C369   C     0.88179   0.75056   0.02302   0.00000  Uiso   1.00
C370   C     0.80352   0.73894   0.01917   0.00000  Uiso   1.00
C371   C     0.74815   0.73902   0.96579   0.00000  Uiso   1.00
C372   C     0.68030   0.72738   0.97195   0.00000  Uiso   1.00
C373   C     0.56058   0.71103   0.95722   0.00000  Uiso   1.00
C374   C     0.89290   0.68501   0.03153   0.00000  Uiso   1.00
C375   C     0.91270   0.63975   0.98854   0.00000  Uiso   1.00
C376   C     0.92009   0.58271   0.00511   0.00000  Uiso   1.00
C377   C     0.93919   0.48266   0.00959   0.00000  Uiso   1.00
C378   C     0.93383   0.81345   0.09090   0.00000  Uiso   1.00
C379   C     0.98806   0.87619   0.09783   0.00000  Uiso   1.00
C380   C     0.02993   0.92729   0.16439   0.00000  Uiso   1.00
C381   C     0.11259   0.02667   0.26105   0.00000  Uiso   1.00
C382   C     0.85974   0.72975   0.12890   0.00000  Uiso   1.00
C383   C     0.79155   0.72764   0.07668   0.00000  Uiso   1.00
C384   C     0.72376   0.71600   0.08293   0.00000  Uiso   1.00
C385   C     0.66830   0.71606   0.02956   0.00000  Uiso   1.00
C386   C     0.88093   0.67370   0.08904   0.00000  Uiso   1.00
C387   C     0.88830   0.61673   0.10568   0.00000  Uiso   1.00
C388   C     0.90810   0.57139   0.06272   0.00000  Uiso   1.00
C389   C     0.92186   0.80215   0.14841   0.00000  Uiso   1.00
C390   C     0.96366   0.85317   0.21497   0.00000  Uiso   1.00
C391   C     0.01794   0.91597   0.22200   0.00000  Uiso   1.00
H392   H     0.89111   0.75935   0.97824   0.00000  Uiso   1.00
H393   H     0.75744   0.74776   0.92129   0.00000  Uiso   1.00
H394   H     0.92197   0.64851   0.94404   0.00000  Uiso   1.00
H395   H     0.99731   0.88492   0.05331   0.00000  Uiso   1.00
H396   H     0.60395   0.72990   0.88349   0.00000  Uiso   1.00
H397   H     0.95088   0.52064   0.93148   0.00000  Uiso   1.00
H398   H     0.10977   0.01915   0.16190   0.00000  Uiso   1.00
H399   H     0.85042   0.72095   0.17367   0.00000  Uiso   1.00
H400   H     0.71451   0.70725   0.12744   0.00000  Uiso   1.00
H401   H     0.87904   0.60800   0.15019   0.00000  Uiso   1.00
H402   H     0.95438   0.84440   0.25946   0.00000  Uiso   1.00
H403   H     0.56910   0.69702   0.05081   0.00000  Uiso   1.00
H404   H     0.91604   0.48776   0.09880   0.00000  Uiso   1.00
H405   H     0.07493   0.98626   0.32922   0.00000  Uiso   1.00
O406   O     0.49784   0.70512   0.93320   0.00000  Uiso   1.00
O407   O     0.95303   0.43059   0.99617   0.00000  Uiso   1.00
O408   O     0.16148   0.08461   0.29848   0.00000  Uiso   1.00
N409   N     0.61440   0.72406   0.92922   0.00000  Uiso   1.00
N410   N     0.93876   0.52840   0.97408   0.00000  Uiso   1.00
N411   N     0.08732   0.99446   0.18951   0.00000  Uiso   1.00
N412   N     0.59565   0.70636   0.01925   0.00000  Uiso   1.00
N413   N     0.92001   0.51071   0.06411   0.00000  Uiso   1.00
N414   N     0.06857   0.97676   0.27954   0.00000  Uiso   1.00
C415   C     0.51098   0.21320   0.35485   0.00000  Uiso   1.00
C416   C     0.51093   0.20526   0.28287   0.00000  Uiso   1.00
C417   C     0.45477   0.20281   0.22837   0.00000  Uiso   1.00
C418   C     0.46523   0.19533   0.16664   0.00000  Uiso   1.00
C419   C     0.45534   0.18371   0.05592   0.00000  Uiso   1.00
C420   C     0.52218   0.14919   0.36756   0.00000  Uiso   1.00
C421   C     0.47548   0.09961   0.38427   0.00000  Uiso   1.00
C422   C     0.49542   0.04493   0.39384   0.00000  Uiso   1.00
C423   C     0.50302   0.94630   0.41464   0.00000  Uiso   1.00
C424   C     0.58102   0.27901   0.40541   0.00000  Uiso   1.00
C425   C     0.58381   0.33856   0.45397   0.00000  Uiso   1.00
C426   C     0.65330   0.39317   0.49542   0.00000  Uiso   1.00
C427   C     0.75226   0.49609   0.57500   0.00000  Uiso   1.00
C428   C     0.62944   0.20427   0.34215   0.00000  Uiso   1.00
C429   C     0.57527   0.20041   0.27598   0.00000  Uiso   1.00
C430   C     0.58583   0.19293   0.21432   0.00000  Uiso   1.00
C431   C     0.52969   0.19047   0.15973   0.00000  Uiso   1.00
C432   C     0.58651   0.14434   0.36066   0.00000  Uiso   1.00
C433   C     0.60653   0.08973   0.37021   0.00000  Uiso   1.00
C434   C     0.55988   0.04007   0.38693   0.00000  Uiso   1.00
C435   C     0.64536   0.27416   0.39852   0.00000  Uiso   1.00
C436   C     0.71486   0.32868   0.43991   0.00000  Uiso   1.00
C437   C     0.71775   0.38831   0.48851   0.00000  Uiso   1.00
H438   H     0.46089   0.21697   0.36022   0.00000  Uiso   1.00
H439   H     0.40498   0.20656   0.23372   0.00000  Uiso   1.00
H440   H     0.42569   0.10338   0.38961   0.00000  Uiso   1.00
H441   H     0.53400   0.34230   0.45929   0.00000  Uiso   1.00
H442   H     0.37135   0.19286   0.09043   0.00000  Uiso   1.00
H443   H     0.41504   0.97531   0.41914   0.00000  Uiso   1.00
H444   H     0.64344   0.47911   0.56608   0.00000  Uiso   1.00
H445   H     0.67954   0.20049   0.33678   0.00000  Uiso   1.00
H446   H     0.63562   0.18918   0.20899   0.00000  Uiso   1.00
H447   H     0.65633   0.08599   0.36488   0.00000  Uiso   1.00
H448   H     0.76464   0.32491   0.43456   0.00000  Uiso   1.00
H449   H     0.55855   0.17874   0.07035   0.00000  Uiso   1.00
H450   H     0.60224   0.96119   0.39907   0.00000  Uiso   1.00
H451   H     0.83063   0.46499   0.54601   0.00000  Uiso   1.00
O452   O     0.43211   0.17863   0.99674   0.00000  Uiso   1.00
O453   O     0.48943   0.89323   0.42801   0.00000  Uiso   1.00
O454   O     0.78908   0.55420   0.62079   0.00000  Uiso   1.00
N455   N     0.42144   0.19110   0.10324   0.00000  Uiso   1.00
N456   N     0.46228   0.98770   0.41056   0.00000  Uiso   1.00
N457   N     0.67581   0.45870   0.54795   0.00000  Uiso   1.00
N458   N     0.52217   0.18351   0.09244   0.00000  Uiso   1.00
N459   N     0.56301   0.98011   0.39976   0.00000  Uiso   1.00
N460   N     0.77654   0.45111   0.53715   0.00000  Uiso   1.00
C461   C     0.25146   0.37240   0.56558   0.00000  Uiso   1.00
C462   C     0.25066   0.31084   0.58958   0.00000  Uiso   1.00
C463   C     0.25860   0.25020   0.55502   0.00000  Uiso   1.00
C464   C     0.25629   0.20003   0.58548   0.00000  Uiso   1.00
C465   C     0.25651   0.10288   0.61317   0.00000  Uiso   1.00
C466   C     0.17878   0.37914   0.56172   0.00000  Uiso   1.00
C467   C     0.12631   0.37593   0.50375   0.00000  Uiso   1.00
C468   C     0.06350   0.38327   0.51076   0.00000  Uiso   1.00
C469   C     0.95216   0.39220   0.49522   0.00000  Uiso   1.00
C470   C     0.31245   0.44005   0.62462   0.00000  Uiso   1.00
C471   C     0.37235   0.48809   0.61953   0.00000  Uiso   1.00
C472   C     0.42207   0.54672   0.67949   0.00000  Uiso   1.00
C473   C     0.51826   0.65024   0.76160   0.00000  Uiso   1.00
C474   C     0.23323   0.39112   0.68111   0.00000  Uiso   1.00
C475   C     0.24075   0.32101   0.65233   0.00000  Uiso   1.00
C476   C     0.23843   0.27092   0.68284   0.00000  Uiso   1.00
C477   C     0.24638   0.21022   0.64834   0.00000  Uiso   1.00
C478   C     0.16888   0.38931   0.62447   0.00000  Uiso   1.00
C479   C     0.10614   0.39665   0.63157   0.00000  Uiso   1.00
C480   C     0.05358   0.39346   0.57362   0.00000  Uiso   1.00
C481   C     0.30255   0.45023   0.68737   0.00000  Uiso   1.00
C482   C     0.35218   0.50880   0.74735   0.00000  Uiso   1.00
C483   C     0.41215   0.55691   0.74235   0.00000  Uiso   1.00
H484   H     0.25917   0.36448   0.51673   0.00000  Uiso   1.00
H485   H     0.26626   0.24235   0.50646   0.00000  Uiso   1.00
H486   H     0.13399   0.36807   0.45520   0.00000  Uiso   1.00
H487   H     0.37999   0.48020   0.57096   0.00000  Uiso   1.00
H488   H     0.26973   0.11141   0.52274   0.00000  Uiso   1.00
H489   H     0.99084   0.37653   0.41466   0.00000  Uiso   1.00
H490   H     0.50958   0.61298   0.65875   0.00000  Uiso   1.00
H491   H     0.22552   0.39904   0.72997   0.00000  Uiso   1.00
H492   H     0.23077   0.27880   0.73140   0.00000  Uiso   1.00
H493   H     0.09850   0.40452   0.68014   0.00000  Uiso   1.00
H494   H     0.34450   0.51665   0.79590   0.00000  Uiso   1.00
H495   H     0.24092   0.14100   0.70531   0.00000  Uiso   1.00
H496   H     0.96203   0.40612   0.59723   0.00000  Uiso   1.00
H497   H     0.48078   0.64257   0.84132   0.00000  Uiso   1.00
O498   O     0.25936   0.04648   0.61111   0.00000  Uiso   1.00
O499   O     0.89348   0.39431   0.46931   0.00000  Uiso   1.00
O500   O     0.57406   0.70452   0.78956   0.00000  Uiso   1.00
N501   N     0.26224   0.13489   0.56551   0.00000  Uiso   1.00
N502   N     0.00149   0.38274   0.46446   0.00000  Uiso   1.00
N503   N     0.48646   0.60381   0.69267   0.00000  Uiso   1.00
N504   N     0.24674   0.15081   0.66375   0.00000  Uiso   1.00
N505   N     0.98599   0.39866   0.56270   0.00000  Uiso   1.00
N506   N     0.47096   0.61973   0.79091   0.00000  Uiso   1.00
C507   C     0.36395   0.54359   0.20086   0.00000  Uiso   1.00
C508   C     0.28777   0.54386   0.19169   0.00000  Uiso   1.00
C509   C     0.22695   0.48845   0.18735   0.00000  Uiso   1.00
C510   C     0.16221   0.49909   0.17898   0.00000  Uiso   1.00
C511   C     0.04448   0.48978   0.16530   0.00000  Uiso   1.00
C512   C     0.38064   0.55822   0.14040   0.00000  Uiso   1.00
C513   C     0.39791   0.51489   0.09294   0.00000  Uiso   1.00
C514   C     0.41136   0.53763   0.04141   0.00000  Uiso   1.00
C515   C     0.43787   0.55064   0.94813   0.00000  Uiso   1.00
C516   C     0.41876   0.60918   0.26560   0.00000  Uiso   1.00
C517   C     0.46810   0.60871   0.32340   0.00000  Uiso   1.00
C518   C     0.51365   0.67436   0.37727   0.00000  Uiso   1.00
C519   C     0.59934   0.76650   0.47838   0.00000  Uiso   1.00
C520   C     0.35714   0.66103   0.19375   0.00000  Uiso   1.00
C521   C     0.28408   0.60764   0.18783   0.00000  Uiso   1.00
C522   C     0.21941   0.61838   0.17947   0.00000  Uiso   1.00
C523   C     0.15850   0.56299   0.17512   0.00000  Uiso   1.00
C524   C     0.37694   0.62200   0.13654   0.00000  Uiso   1.00
C525   C     0.39038   0.64481   0.08507   0.00000  Uiso   1.00
C526   C     0.40766   0.60153   0.03754   0.00000  Uiso   1.00
C527   C     0.41506   0.67297   0.26174   0.00000  Uiso   1.00
C528   C     0.46056   0.73863   0.31553   0.00000  Uiso   1.00
C529   C     0.50995   0.73826   0.37340   0.00000  Uiso   1.00
H530   H     0.36683   0.49394   0.20387   0.00000  Uiso   1.00
H531   H     0.22983   0.43909   0.19033   0.00000  Uiso   1.00
H532   H     0.40078   0.46553   0.09595   0.00000  Uiso   1.00
H533   H     0.47094   0.55934   0.32637   0.00000  Uiso   1.00
H534   H     0.07630   0.40641   0.17360   0.00000  Uiso   1.00
H535   H     0.43678   0.46217   0.97460   0.00000  Uiso   1.00
H536   H     0.58474   0.65998   0.46049   0.00000  Uiso   1.00
H537   H     0.35426   0.71069   0.19074   0.00000  Uiso   1.00
H538   H     0.21657   0.66774   0.17649   0.00000  Uiso   1.00
H539   H     0.38751   0.69418   0.08210   0.00000  Uiso   1.00
H540   H     0.45768   0.78798   0.31252   0.00000  Uiso   1.00
H541   H     0.06554   0.59199   0.16236   0.00000  Uiso   1.00
H542   H     0.42601   0.64775   0.96336   0.00000  Uiso   1.00
H543   H     0.57397   0.84556   0.44925   0.00000  Uiso   1.00
O544   O     0.98056   0.46702   0.15881   0.00000  Uiso   1.00
O545   O     0.45350   0.54019   0.89775   0.00000  Uiso   1.00
O546   O     0.64762   0.79971   0.53522   0.00000  Uiso   1.00
N547   N     0.09267   0.45598   0.17292   0.00000  Uiso   1.00
N548   N     0.42968   0.50811   0.98686   0.00000  Uiso   1.00
N549   N     0.56803   0.69305   0.44112   0.00000  Uiso   1.00
N550   N     0.08688   0.55584   0.16687   0.00000  Uiso   1.00
N551   N     0.42389   0.60797   0.98081   0.00000  Uiso   1.00
N552   N     0.56223   0.79291   0.43507   0.00000  Uiso   1.00
