data_job_02323
_audit_creation_date              2018-12-19
_audit_creation_method            'Materials Studio'
_symmetry_space_group_name_H-M    'P1'
_symmetry_Int_Tables_number       1
_symmetry_cell_setting            triclinic
loop_
_symmetry_equiv_pos_as_xyz
  x,y,z
_cell_length_a                    19.6511
_cell_length_b                    12.5923
_cell_length_c                    29.3080
_cell_angle_alpha                 90.0000
_cell_angle_beta                  134.4382
_cell_angle_gamma                 90.0000
loop_
_atom_site_label
_atom_site_type_symbol
_atom_site_fract_x
_atom_site_fract_y
_atom_site_fract_z
_atom_site_U_iso_or_equiv
_atom_site_adp_type
_atom_site_occupancy
C1     C     0.74223   0.04836   0.07266   0.00000  Uiso   1.00
C2     C     0.73031   0.15805   0.08837   0.00000  Uiso   1.00
C3     C     0.65164   0.22381   0.04639   0.00000  Uiso   1.00
C4     C     0.65447   0.32111   0.06995   0.00000  Uiso   1.00
C5     C     0.62398   0.48680   0.08472   0.00000  Uiso   1.00
C6     C     0.76137   0.97248   0.12115   0.00000  Uiso   1.00
C7     C     0.70883   0.88220   0.10674   0.00000  Uiso   1.00
C8     C     0.73782   0.82328   0.15791   0.00000  Uiso   1.00
C9     C     0.75560   0.70081   0.22357   0.00000  Uiso   1.00
C10    C     0.83430   0.05283   0.08831   0.00000  Uiso   1.00
C11    C     0.84308   0.03009   0.04629   0.00000  Uiso   1.00
C12    C     0.93348   0.03879   0.06982   0.00000  Uiso   1.00
C13    C     0.06448   0.04109   0.08450   0.00000  Uiso   1.00
C14    C     0.88715   0.10423   0.18917   0.00000  Uiso   1.00
C15    C     0.80903   0.18840   0.15165   0.00000  Uiso   1.00
C16    C     0.81198   0.28563   0.17528   0.00000  Uiso   1.00
C17    C     0.73333   0.35152   0.13335   0.00000  Uiso   1.00
C18    C     0.84009   0.00282   0.18443   0.00000  Uiso   1.00
C19    C     0.86917   0.94401   0.23564   0.00000  Uiso   1.00
C20    C     0.81668   0.85367   0.22130   0.00000  Uiso   1.00
C21    C     0.91302   0.08318   0.15159   0.00000  Uiso   1.00
C22    C     0.00342   0.09191   0.17519   0.00000  Uiso   1.00
C23    C     0.01233   0.06919   0.13322   0.00000  Uiso   1.00
H24    H     0.68094   0.02473   0.02340   0.00000  Uiso   1.00
H25    H     0.59074   0.20029   0.99742   0.00000  Uiso   1.00
H26    H     0.64793   0.85873   0.05776   0.00000  Uiso   1.00
H27    H     0.78215   0.00661   0.99733   0.00000  Uiso   1.00
H28    H     0.52542   0.40831   0.99653   0.00000  Uiso   1.00
H29    H     0.64603   0.68808   0.12377   0.00000  Uiso   1.00
H30    H     0.92907   0.99990   0.99633   0.00000  Uiso   1.00
H31    H     0.94843   0.12785   0.23844   0.00000  Uiso   1.00
H32    H     0.87290   0.30909   0.22426   0.00000  Uiso   1.00
H33    H     0.93009   0.96752   0.28460   0.00000  Uiso   1.00
H34    H     0.06432   0.11540   0.22416   0.00000  Uiso   1.00
H35    H     0.75444   0.49661   0.18064   0.00000  Uiso   1.00
H36    H     0.87504   0.77637   0.30788   0.00000  Uiso   1.00
H37    H     0.15809   0.08820   0.18044   0.00000  Uiso   1.00
O38    O     0.58541   0.56980   0.07538   0.00000  Uiso   1.00
O39    O     0.74365   0.62488   0.24231   0.00000  Uiso   1.00
O40    O     0.11499   0.03399   0.07511   0.00000  Uiso   1.00
N41    N     0.58970   0.40423   0.04180   0.00000  Uiso   1.00
N42    N     0.70244   0.73087   0.16076   0.00000  Uiso   1.00
N43    N     0.96707   0.02237   0.04162   0.00000  Uiso   1.00
N44    N     0.71293   0.45174   0.14087   0.00000  Uiso   1.00
N45    N     0.82568   0.77838   0.25983   0.00000  Uiso   1.00
N46    N     0.09030   0.06988   0.14069   0.00000  Uiso   1.00
C47    C     0.25777   0.54836   0.42734   0.00000  Uiso   1.00
C48    C     0.26969   0.65805   0.41163   0.00000  Uiso   1.00
C49    C     0.34836   0.72381   0.45361   0.00000  Uiso   1.00
C50    C     0.34553   0.82111   0.43005   0.00000  Uiso   1.00
C51    C     0.37602   0.98680   0.41528   0.00000  Uiso   1.00
C52    C     0.23863   0.47248   0.37885   0.00000  Uiso   1.00
C53    C     0.29117   0.38220   0.39326   0.00000  Uiso   1.00
C54    C     0.26218   0.32328   0.34209   0.00000  Uiso   1.00
C55    C     0.24440   0.20081   0.27643   0.00000  Uiso   1.00
C56    C     0.16570   0.55283   0.41169   0.00000  Uiso   1.00
C57    C     0.15692   0.53009   0.45371   0.00000  Uiso   1.00
C58    C     0.06652   0.53879   0.43018   0.00000  Uiso   1.00
C59    C     0.93552   0.54109   0.41550   0.00000  Uiso   1.00
C60    C     0.11285   0.60423   0.31083   0.00000  Uiso   1.00
C61    C     0.19097   0.68840   0.34835   0.00000  Uiso   1.00
C62    C     0.18802   0.78563   0.32472   0.00000  Uiso   1.00
C63    C     0.26667   0.85152   0.36665   0.00000  Uiso   1.00
C64    C     0.15991   0.50282   0.31557   0.00000  Uiso   1.00
C65    C     0.13083   0.44401   0.26436   0.00000  Uiso   1.00
C66    C     0.18332   0.35367   0.27870   0.00000  Uiso   1.00
C67    C     0.08698   0.58318   0.34841   0.00000  Uiso   1.00
C68    C     0.99658   0.59191   0.32481   0.00000  Uiso   1.00
C69    C     0.98767   0.56919   0.36678   0.00000  Uiso   1.00
H70    H     0.31906   0.52473   0.47660   0.00000  Uiso   1.00
H71    H     0.40926   0.70029   0.50258   0.00000  Uiso   1.00
H72    H     0.35207   0.35873   0.44224   0.00000  Uiso   1.00
H73    H     0.21785   0.50661   0.50267   0.00000  Uiso   1.00
H74    H     0.47458   0.90831   0.50347   0.00000  Uiso   1.00
H75    H     0.35397   0.18808   0.37623   0.00000  Uiso   1.00
H76    H     0.07093   0.49990   0.50367   0.00000  Uiso   1.00
H77    H     0.05157   0.62785   0.26156   0.00000  Uiso   1.00
H78    H     0.12710   0.80909   0.27574   0.00000  Uiso   1.00
H79    H     0.06991   0.46752   0.21540   0.00000  Uiso   1.00
H80    H     0.93568   0.61540   0.27584   0.00000  Uiso   1.00
H81    H     0.24556   0.99661   0.31936   0.00000  Uiso   1.00
H82    H     0.12496   0.27637   0.19212   0.00000  Uiso   1.00
H83    H     0.84191   0.58820   0.31956   0.00000  Uiso   1.00
O84    O     0.41459   0.06980   0.42462   0.00000  Uiso   1.00
O85    O     0.25635   0.12488   0.25769   0.00000  Uiso   1.00
O86    O     0.88501   0.53399   0.42489   0.00000  Uiso   1.00
N87    N     0.41030   0.90423   0.45820   0.00000  Uiso   1.00
N88    N     0.29756   0.23087   0.33924   0.00000  Uiso   1.00
N89    N     0.03293   0.52237   0.45838   0.00000  Uiso   1.00
N90    N     0.28707   0.95174   0.35913   0.00000  Uiso   1.00
N91    N     0.17432   0.27838   0.24017   0.00000  Uiso   1.00
N92    N     0.90970   0.56988   0.35931   0.00000  Uiso   1.00
C93    C     0.25777   0.95164   0.92734   0.00000  Uiso   1.00
C94    C     0.26969   0.84195   0.91163   0.00000  Uiso   1.00
C95    C     0.34836   0.77619   0.95361   0.00000  Uiso   1.00
C96    C     0.34553   0.67889   0.93005   0.00000  Uiso   1.00
C97    C     0.37602   0.51320   0.91528   0.00000  Uiso   1.00
C98    C     0.23863   0.02752   0.87885   0.00000  Uiso   1.00
C99    C     0.29117   0.11780   0.89326   0.00000  Uiso   1.00
C100   C     0.26218   0.17672   0.84209   0.00000  Uiso   1.00
C101   C     0.24440   0.29919   0.77643   0.00000  Uiso   1.00
C102   C     0.16570   0.94717   0.91169   0.00000  Uiso   1.00
C103   C     0.15692   0.96991   0.95371   0.00000  Uiso   1.00
C104   C     0.06652   0.96121   0.93018   0.00000  Uiso   1.00
C105   C     0.93552   0.95891   0.91550   0.00000  Uiso   1.00
C106   C     0.11285   0.89577   0.81083   0.00000  Uiso   1.00
C107   C     0.19097   0.81160   0.84835   0.00000  Uiso   1.00
C108   C     0.18802   0.71437   0.82472   0.00000  Uiso   1.00
C109   C     0.26667   0.64848   0.86665   0.00000  Uiso   1.00
C110   C     0.15991   0.99718   0.81557   0.00000  Uiso   1.00
C111   C     0.13083   0.05599   0.76436   0.00000  Uiso   1.00
C112   C     0.18332   0.14633   0.77870   0.00000  Uiso   1.00
C113   C     0.08698   0.91682   0.84841   0.00000  Uiso   1.00
C114   C     0.99658   0.90809   0.82481   0.00000  Uiso   1.00
C115   C     0.98767   0.93081   0.86678   0.00000  Uiso   1.00
H116   H     0.31906   0.97527   0.97660   0.00000  Uiso   1.00
H117   H     0.40926   0.79971   0.00258   0.00000  Uiso   1.00
H118   H     0.35207   0.14127   0.94224   0.00000  Uiso   1.00
H119   H     0.21785   0.99339   0.00267   0.00000  Uiso   1.00
H120   H     0.47458   0.59169   0.00347   0.00000  Uiso   1.00
H121   H     0.35397   0.31192   0.87623   0.00000  Uiso   1.00
H122   H     0.07093   0.00010   0.00367   0.00000  Uiso   1.00
H123   H     0.05157   0.87215   0.76156   0.00000  Uiso   1.00
H124   H     0.12710   0.69091   0.77574   0.00000  Uiso   1.00
H125   H     0.06991   0.03248   0.71540   0.00000  Uiso   1.00
H126   H     0.93568   0.88460   0.77584   0.00000  Uiso   1.00
H127   H     0.24556   0.50339   0.81936   0.00000  Uiso   1.00
H128   H     0.12496   0.22363   0.69212   0.00000  Uiso   1.00
H129   H     0.84191   0.91180   0.81956   0.00000  Uiso   1.00
O130   O     0.41459   0.43020   0.92462   0.00000  Uiso   1.00
O131   O     0.25635   0.37512   0.75769   0.00000  Uiso   1.00
O132   O     0.88501   0.96601   0.92489   0.00000  Uiso   1.00
N133   N     0.41030   0.59577   0.95820   0.00000  Uiso   1.00
N134   N     0.29756   0.26913   0.83924   0.00000  Uiso   1.00
N135   N     0.03293   0.97763   0.95838   0.00000  Uiso   1.00
N136   N     0.28707   0.54826   0.85913   0.00000  Uiso   1.00
N137   N     0.17432   0.22162   0.74017   0.00000  Uiso   1.00
N138   N     0.90970   0.93012   0.85931   0.00000  Uiso   1.00
C139   C     0.74223   0.45164   0.57266   0.00000  Uiso   1.00
C140   C     0.73031   0.34195   0.58837   0.00000  Uiso   1.00
C141   C     0.65164   0.27619   0.54639   0.00000  Uiso   1.00
C142   C     0.65447   0.17889   0.56995   0.00000  Uiso   1.00
C143   C     0.62398   0.01320   0.58472   0.00000  Uiso   1.00
C144   C     0.76137   0.52752   0.62115   0.00000  Uiso   1.00
C145   C     0.70883   0.61780   0.60674   0.00000  Uiso   1.00
C146   C     0.73782   0.67672   0.65791   0.00000  Uiso   1.00
C147   C     0.75560   0.79919   0.72357   0.00000  Uiso   1.00
C148   C     0.83430   0.44717   0.58831   0.00000  Uiso   1.00
C149   C     0.84308   0.46991   0.54629   0.00000  Uiso   1.00
C150   C     0.93348   0.46121   0.56982   0.00000  Uiso   1.00
C151   C     0.06448   0.45891   0.58450   0.00000  Uiso   1.00
C152   C     0.88715   0.39577   0.68917   0.00000  Uiso   1.00
C153   C     0.80903   0.31160   0.65165   0.00000  Uiso   1.00
C154   C     0.81198   0.21437   0.67528   0.00000  Uiso   1.00
C155   C     0.73333   0.14848   0.63335   0.00000  Uiso   1.00
C156   C     0.84009   0.49718   0.68443   0.00000  Uiso   1.00
C157   C     0.86917   0.55599   0.73564   0.00000  Uiso   1.00
C158   C     0.81668   0.64633   0.72130   0.00000  Uiso   1.00
C159   C     0.91302   0.41682   0.65159   0.00000  Uiso   1.00
C160   C     0.00342   0.40809   0.67519   0.00000  Uiso   1.00
C161   C     0.01233   0.43081   0.63322   0.00000  Uiso   1.00
H162   H     0.68094   0.47527   0.52340   0.00000  Uiso   1.00
H163   H     0.59074   0.29971   0.49742   0.00000  Uiso   1.00
H164   H     0.64793   0.64127   0.55776   0.00000  Uiso   1.00
H165   H     0.78215   0.49339   0.49733   0.00000  Uiso   1.00
H166   H     0.52542   0.09169   0.49653   0.00000  Uiso   1.00
H167   H     0.64603   0.81192   0.62377   0.00000  Uiso   1.00
H168   H     0.92907   0.50010   0.49633   0.00000  Uiso   1.00
H169   H     0.94843   0.37215   0.73844   0.00000  Uiso   1.00
H170   H     0.87290   0.19091   0.72426   0.00000  Uiso   1.00
H171   H     0.93009   0.53248   0.78460   0.00000  Uiso   1.00
H172   H     0.06432   0.38460   0.72416   0.00000  Uiso   1.00
H173   H     0.75444   0.00339   0.68064   0.00000  Uiso   1.00
H174   H     0.87504   0.72363   0.80788   0.00000  Uiso   1.00
H175   H     0.15809   0.41180   0.68044   0.00000  Uiso   1.00
O176   O     0.58541   0.93020   0.57538   0.00000  Uiso   1.00
O177   O     0.74365   0.87512   0.74231   0.00000  Uiso   1.00
O178   O     0.11499   0.46601   0.57511   0.00000  Uiso   1.00
N179   N     0.58970   0.09577   0.54180   0.00000  Uiso   1.00
N180   N     0.70244   0.76913   0.66076   0.00000  Uiso   1.00
N181   N     0.96707   0.47763   0.54162   0.00000  Uiso   1.00
N182   N     0.71293   0.04826   0.64087   0.00000  Uiso   1.00
N183   N     0.82568   0.72162   0.75983   0.00000  Uiso   1.00
N184   N     0.09030   0.43012   0.64069   0.00000  Uiso   1.00
