data_job_02752
_audit_creation_date              2018-12-19
_audit_creation_method            'Materials Studio'
_symmetry_space_group_name_H-M    'P1'
_symmetry_Int_Tables_number       1
_symmetry_cell_setting            triclinic
loop_
_symmetry_equiv_pos_as_xyz
  x,y,z
_cell_length_a                    30.9681
_cell_length_b                    10.7058
_cell_length_c                    14.2261
_cell_angle_alpha                 90.0000
_cell_angle_beta                  90.0000
_cell_angle_gamma                 90.0000
loop_
_atom_site_label
_atom_site_type_symbol
_atom_site_fract_x
_atom_site_fract_y
_atom_site_fract_z
_atom_site_U_iso_or_equiv
_atom_site_adp_type
_atom_site_occupancy
C1     C     0.86032   0.62724   0.88313   0.00000  Uiso   1.00
C2     C     0.82987   0.67495   0.95933   0.00000  Uiso   1.00
C3     C     0.79200   0.74127   0.94424   0.00000  Uiso   1.00
C4     C     0.76867   0.77654   0.02324   0.00000  Uiso   1.00
C5     C     0.71925   0.85524   0.12776   0.00000  Uiso   1.00
C6     C     0.90456   0.68209   0.90579   0.00000  Uiso   1.00
C7     C     0.92948   0.75440   0.84568   0.00000  Uiso   1.00
C8     C     0.96902   0.79567   0.87961   0.00000  Uiso   1.00
C9     C     0.03558   0.88538   0.90098   0.00000  Uiso   1.00
C10    C     0.86430   0.48681   0.89878   0.00000  Uiso   1.00
C11    C     0.85539   0.39491   0.83277   0.00000  Uiso   1.00
C12    C     0.86105   0.27176   0.86079   0.00000  Uiso   1.00
C13    C     0.86509   0.05826   0.87129   0.00000  Uiso   1.00
C14    C     0.88624   0.57195   0.05026   0.00000  Uiso   1.00
C15    C     0.84395   0.64492   0.05011   0.00000  Uiso   1.00
C16    C     0.82067   0.68009   0.12915   0.00000  Uiso   1.00
C17    C     0.78277   0.74645   0.11418   0.00000  Uiso   1.00
C18    C     0.91864   0.65206   0.99657   0.00000  Uiso   1.00
C19    C     0.95815   0.69323   0.03059   0.00000  Uiso   1.00
C20    C     0.98313   0.76558   0.97055   0.00000  Uiso   1.00
C21    C     0.87838   0.45677   0.98956   0.00000  Uiso   1.00
C22    C     0.88406   0.33374   0.01769   0.00000  Uiso   1.00
C23    C     0.87515   0.24167   0.95174   0.00000  Uiso   1.00
H24    H     0.84937   0.65062   0.81245   0.00000  Uiso   1.00
H25    H     0.78112   0.76450   0.87398   0.00000  Uiso   1.00
H26    H     0.91858   0.77761   0.77543   0.00000  Uiso   1.00
H27    H     0.84449   0.41818   0.76253   0.00000  Uiso   1.00
H28    H     0.71166   0.87754   0.98223   0.00000  Uiso   1.00
H29    H     0.00152   0.90516   0.77443   0.00000  Uiso   1.00
H30    H     0.84530   0.14723   0.74722   0.00000  Uiso   1.00
H31    H     0.89720   0.54857   0.12093   0.00000  Uiso   1.00
H32    H     0.83157   0.65684   0.19939   0.00000  Uiso   1.00
H33    H     0.96904   0.66996   0.10084   0.00000  Uiso   1.00
H34    H     0.89495   0.31053   0.08794   0.00000  Uiso   1.00
H35    H     0.75262   0.79017   0.24635   0.00000  Uiso   1.00
H36    H     0.04247   0.81779   0.03854   0.00000  Uiso   1.00
H37    H     0.88625   0.05986   0.01134   0.00000  Uiso   1.00
O38    O     0.68811   0.90696   0.16034   0.00000  Uiso   1.00
O39    O     0.06839   0.94317   0.88770   0.00000  Uiso   1.00
O40    O     0.86343   0.94879   0.85201   0.00000  Uiso   1.00
N41    N     0.73030   0.84210   0.03362   0.00000  Uiso   1.00
N42    N     0.00130   0.86794   0.83934   0.00000  Uiso   1.00
N43    N     0.85525   0.15934   0.81390   0.00000  Uiso   1.00
N44    N     0.75234   0.79508   0.17574   0.00000  Uiso   1.00
N45    N     0.02334   0.82092   0.98146   0.00000  Uiso   1.00
N46    N     0.87729   0.11233   0.95602   0.00000  Uiso   1.00
C47    C     0.63968   0.37276   0.38313   0.00000  Uiso   1.00
C48    C     0.67013   0.32505   0.45933   0.00000  Uiso   1.00
C49    C     0.70800   0.25873   0.44424   0.00000  Uiso   1.00
C50    C     0.73133   0.22346   0.52324   0.00000  Uiso   1.00
C51    C     0.78075   0.14476   0.62776   0.00000  Uiso   1.00
C52    C     0.59544   0.31791   0.40579   0.00000  Uiso   1.00
C53    C     0.57052   0.24560   0.34568   0.00000  Uiso   1.00
C54    C     0.53098   0.20433   0.37961   0.00000  Uiso   1.00
C55    C     0.46442   0.11462   0.40098   0.00000  Uiso   1.00
C56    C     0.63570   0.51319   0.39878   0.00000  Uiso   1.00
C57    C     0.64461   0.60509   0.33277   0.00000  Uiso   1.00
C58    C     0.63895   0.72824   0.36079   0.00000  Uiso   1.00
C59    C     0.63491   0.94174   0.37129   0.00000  Uiso   1.00
C60    C     0.61376   0.42805   0.55026   0.00000  Uiso   1.00
C61    C     0.65605   0.35508   0.55011   0.00000  Uiso   1.00
C62    C     0.67933   0.31991   0.62915   0.00000  Uiso   1.00
C63    C     0.71723   0.25355   0.61418   0.00000  Uiso   1.00
C64    C     0.58136   0.34794   0.49657   0.00000  Uiso   1.00
C65    C     0.54185   0.30677   0.53059   0.00000  Uiso   1.00
C66    C     0.51687   0.23442   0.47055   0.00000  Uiso   1.00
C67    C     0.62162   0.54323   0.48956   0.00000  Uiso   1.00
C68    C     0.61594   0.66626   0.51769   0.00000  Uiso   1.00
C69    C     0.62485   0.75833   0.45174   0.00000  Uiso   1.00
H70    H     0.65063   0.34938   0.31245   0.00000  Uiso   1.00
H71    H     0.71888   0.23550   0.37398   0.00000  Uiso   1.00
H72    H     0.58142   0.22239   0.27543   0.00000  Uiso   1.00
H73    H     0.65551   0.58182   0.26253   0.00000  Uiso   1.00
H74    H     0.78834   0.12246   0.48223   0.00000  Uiso   1.00
H75    H     0.49848   0.09484   0.27443   0.00000  Uiso   1.00
H76    H     0.65470   0.85277   0.24722   0.00000  Uiso   1.00
H77    H     0.60280   0.45143   0.62093   0.00000  Uiso   1.00
H78    H     0.66843   0.34316   0.69939   0.00000  Uiso   1.00
H79    H     0.53096   0.33004   0.60084   0.00000  Uiso   1.00
H80    H     0.60505   0.68947   0.58794   0.00000  Uiso   1.00
H81    H     0.74738   0.20983   0.74635   0.00000  Uiso   1.00
H82    H     0.45753   0.18221   0.53854   0.00000  Uiso   1.00
H83    H     0.61375   0.94014   0.51134   0.00000  Uiso   1.00
O84    O     0.81189   0.09304   0.66034   0.00000  Uiso   1.00
O85    O     0.43161   0.05683   0.38770   0.00000  Uiso   1.00
O86    O     0.63657   0.05121   0.35201   0.00000  Uiso   1.00
N87    N     0.76970   0.15790   0.53362   0.00000  Uiso   1.00
N88    N     0.49870   0.13206   0.33934   0.00000  Uiso   1.00
N89    N     0.64475   0.84066   0.31390   0.00000  Uiso   1.00
N90    N     0.74766   0.20492   0.67574   0.00000  Uiso   1.00
N91    N     0.47666   0.17908   0.48146   0.00000  Uiso   1.00
N92    N     0.62271   0.88767   0.45602   0.00000  Uiso   1.00
C93    C     0.13968   0.12724   0.61687   0.00000  Uiso   1.00
C94    C     0.17013   0.17495   0.54067   0.00000  Uiso   1.00
C95    C     0.20800   0.24127   0.55576   0.00000  Uiso   1.00
C96    C     0.23133   0.27654   0.47676   0.00000  Uiso   1.00
C97    C     0.28075   0.35524   0.37224   0.00000  Uiso   1.00
C98    C     0.09544   0.18209   0.59421   0.00000  Uiso   1.00
C99    C     0.07052   0.25440   0.65432   0.00000  Uiso   1.00
C100   C     0.03098   0.29567   0.62039   0.00000  Uiso   1.00
C101   C     0.96442   0.38538   0.59902   0.00000  Uiso   1.00
C102   C     0.13570   0.98681   0.60122   0.00000  Uiso   1.00
C103   C     0.14461   0.89491   0.66723   0.00000  Uiso   1.00
C104   C     0.13895   0.77176   0.63921   0.00000  Uiso   1.00
C105   C     0.13491   0.55826   0.62871   0.00000  Uiso   1.00
C106   C     0.11376   0.07195   0.44974   0.00000  Uiso   1.00
C107   C     0.15605   0.14492   0.44989   0.00000  Uiso   1.00
C108   C     0.17933   0.18009   0.37085   0.00000  Uiso   1.00
C109   C     0.21723   0.24645   0.38582   0.00000  Uiso   1.00
C110   C     0.08136   0.15206   0.50343   0.00000  Uiso   1.00
C111   C     0.04185   0.19323   0.46941   0.00000  Uiso   1.00
C112   C     0.01687   0.26558   0.52945   0.00000  Uiso   1.00
C113   C     0.12162   0.95677   0.51044   0.00000  Uiso   1.00
C114   C     0.11594   0.83374   0.48231   0.00000  Uiso   1.00
C115   C     0.12485   0.74167   0.54826   0.00000  Uiso   1.00
H116   H     0.15063   0.15062   0.68755   0.00000  Uiso   1.00
H117   H     0.21888   0.26450   0.62602   0.00000  Uiso   1.00
H118   H     0.08142   0.27761   0.72457   0.00000  Uiso   1.00
H119   H     0.15551   0.91818   0.73747   0.00000  Uiso   1.00
H120   H     0.28834   0.37754   0.51777   0.00000  Uiso   1.00
H121   H     0.99848   0.40516   0.72557   0.00000  Uiso   1.00
H122   H     0.15470   0.64723   0.75278   0.00000  Uiso   1.00
H123   H     0.10280   0.04857   0.37907   0.00000  Uiso   1.00
H124   H     0.16843   0.15684   0.30061   0.00000  Uiso   1.00
H125   H     0.03096   0.16996   0.39916   0.00000  Uiso   1.00
H126   H     0.10505   0.81053   0.41206   0.00000  Uiso   1.00
H127   H     0.24738   0.29017   0.25365   0.00000  Uiso   1.00
H128   H     0.95753   0.31779   0.46146   0.00000  Uiso   1.00
H129   H     0.11375   0.55986   0.48866   0.00000  Uiso   1.00
O130   O     0.31189   0.40696   0.33966   0.00000  Uiso   1.00
O131   O     0.93161   0.44317   0.61230   0.00000  Uiso   1.00
O132   O     0.13657   0.44879   0.64799   0.00000  Uiso   1.00
N133   N     0.26970   0.34210   0.46638   0.00000  Uiso   1.00
N134   N     0.99870   0.36794   0.66066   0.00000  Uiso   1.00
N135   N     0.14475   0.65934   0.68610   0.00000  Uiso   1.00
N136   N     0.24766   0.29508   0.32426   0.00000  Uiso   1.00
N137   N     0.97666   0.32092   0.51854   0.00000  Uiso   1.00
N138   N     0.12271   0.61233   0.54398   0.00000  Uiso   1.00
C139   C     0.36032   0.87276   0.11687   0.00000  Uiso   1.00
C140   C     0.32987   0.82505   0.04067   0.00000  Uiso   1.00
C141   C     0.29200   0.75873   0.05576   0.00000  Uiso   1.00
C142   C     0.26867   0.72346   0.97676   0.00000  Uiso   1.00
C143   C     0.21925   0.64476   0.87224   0.00000  Uiso   1.00
C144   C     0.40456   0.81791   0.09421   0.00000  Uiso   1.00
C145   C     0.42948   0.74560   0.15432   0.00000  Uiso   1.00
C146   C     0.46902   0.70433   0.12039   0.00000  Uiso   1.00
C147   C     0.53558   0.61462   0.09902   0.00000  Uiso   1.00
C148   C     0.36430   0.01319   0.10122   0.00000  Uiso   1.00
C149   C     0.35539   0.10509   0.16723   0.00000  Uiso   1.00
C150   C     0.36105   0.22824   0.13921   0.00000  Uiso   1.00
C151   C     0.36509   0.44174   0.12871   0.00000  Uiso   1.00
C152   C     0.38624   0.92805   0.94974   0.00000  Uiso   1.00
C153   C     0.34395   0.85508   0.94989   0.00000  Uiso   1.00
C154   C     0.32067   0.81991   0.87085   0.00000  Uiso   1.00
C155   C     0.28277   0.75355   0.88582   0.00000  Uiso   1.00
C156   C     0.41864   0.84794   0.00343   0.00000  Uiso   1.00
C157   C     0.45815   0.80677   0.96941   0.00000  Uiso   1.00
C158   C     0.48313   0.73442   0.02945   0.00000  Uiso   1.00
C159   C     0.37838   0.04323   0.01044   0.00000  Uiso   1.00
C160   C     0.38406   0.16626   0.98231   0.00000  Uiso   1.00
C161   C     0.37515   0.25833   0.04826   0.00000  Uiso   1.00
H162   H     0.34937   0.84938   0.18755   0.00000  Uiso   1.00
H163   H     0.28112   0.73550   0.12602   0.00000  Uiso   1.00
H164   H     0.41858   0.72239   0.22457   0.00000  Uiso   1.00
H165   H     0.34449   0.08182   0.23747   0.00000  Uiso   1.00
H166   H     0.21166   0.62246   0.01777   0.00000  Uiso   1.00
H167   H     0.50152   0.59484   0.22557   0.00000  Uiso   1.00
H168   H     0.34530   0.35277   0.25278   0.00000  Uiso   1.00
H169   H     0.39720   0.95143   0.87907   0.00000  Uiso   1.00
H170   H     0.33157   0.84316   0.80061   0.00000  Uiso   1.00
H171   H     0.46904   0.83004   0.89916   0.00000  Uiso   1.00
H172   H     0.39495   0.18947   0.91206   0.00000  Uiso   1.00
H173   H     0.25262   0.70983   0.75365   0.00000  Uiso   1.00
H174   H     0.54247   0.68221   0.96146   0.00000  Uiso   1.00
H175   H     0.38625   0.44014   0.98866   0.00000  Uiso   1.00
O176   O     0.18811   0.59304   0.83966   0.00000  Uiso   1.00
O177   O     0.56839   0.55683   0.11230   0.00000  Uiso   1.00
O178   O     0.36343   0.55121   0.14799   0.00000  Uiso   1.00
N179   N     0.23030   0.65790   0.96638   0.00000  Uiso   1.00
N180   N     0.50130   0.63206   0.16066   0.00000  Uiso   1.00
N181   N     0.35525   0.34066   0.18610   0.00000  Uiso   1.00
N182   N     0.25234   0.70492   0.82426   0.00000  Uiso   1.00
N183   N     0.52334   0.67908   0.01854   0.00000  Uiso   1.00
N184   N     0.37729   0.38767   0.04398   0.00000  Uiso   1.00
C185   C     0.13968   0.37276   0.11687   0.00000  Uiso   1.00
C186   C     0.17013   0.32505   0.04067   0.00000  Uiso   1.00
C187   C     0.20800   0.25873   0.05576   0.00000  Uiso   1.00
C188   C     0.23133   0.22346   0.97676   0.00000  Uiso   1.00
C189   C     0.28075   0.14476   0.87224   0.00000  Uiso   1.00
C190   C     0.09544   0.31791   0.09421   0.00000  Uiso   1.00
C191   C     0.07052   0.24560   0.15432   0.00000  Uiso   1.00
C192   C     0.03098   0.20433   0.12039   0.00000  Uiso   1.00
C193   C     0.96442   0.11462   0.09902   0.00000  Uiso   1.00
C194   C     0.13570   0.51319   0.10122   0.00000  Uiso   1.00
C195   C     0.14461   0.60509   0.16723   0.00000  Uiso   1.00
C196   C     0.13895   0.72824   0.13921   0.00000  Uiso   1.00
C197   C     0.13491   0.94174   0.12871   0.00000  Uiso   1.00
C198   C     0.11376   0.42805   0.94974   0.00000  Uiso   1.00
C199   C     0.15605   0.35508   0.94989   0.00000  Uiso   1.00
C200   C     0.17933   0.31991   0.87085   0.00000  Uiso   1.00
C201   C     0.21723   0.25355   0.88582   0.00000  Uiso   1.00
C202   C     0.08136   0.34794   0.00343   0.00000  Uiso   1.00
C203   C     0.04185   0.30677   0.96941   0.00000  Uiso   1.00
C204   C     0.01687   0.23442   0.02945   0.00000  Uiso   1.00
C205   C     0.12162   0.54323   0.01044   0.00000  Uiso   1.00
C206   C     0.11594   0.66626   0.98231   0.00000  Uiso   1.00
C207   C     0.12485   0.75833   0.04826   0.00000  Uiso   1.00
H208   H     0.15063   0.34938   0.18755   0.00000  Uiso   1.00
H209   H     0.21888   0.23550   0.12602   0.00000  Uiso   1.00
H210   H     0.08142   0.22239   0.22457   0.00000  Uiso   1.00
H211   H     0.15551   0.58182   0.23747   0.00000  Uiso   1.00
H212   H     0.28834   0.12246   0.01777   0.00000  Uiso   1.00
H213   H     0.99848   0.09484   0.22557   0.00000  Uiso   1.00
H214   H     0.15470   0.85277   0.25278   0.00000  Uiso   1.00
H215   H     0.10280   0.45143   0.87907   0.00000  Uiso   1.00
H216   H     0.16843   0.34316   0.80061   0.00000  Uiso   1.00
H217   H     0.03096   0.33004   0.89916   0.00000  Uiso   1.00
H218   H     0.10505   0.68947   0.91206   0.00000  Uiso   1.00
H219   H     0.24738   0.20983   0.75365   0.00000  Uiso   1.00
H220   H     0.95753   0.18221   0.96146   0.00000  Uiso   1.00
H221   H     0.11375   0.94014   0.98866   0.00000  Uiso   1.00
O222   O     0.31189   0.09304   0.83966   0.00000  Uiso   1.00
O223   O     0.93161   0.05683   0.11230   0.00000  Uiso   1.00
O224   O     0.13657   0.05121   0.14799   0.00000  Uiso   1.00
N225   N     0.26970   0.15790   0.96638   0.00000  Uiso   1.00
N226   N     0.99870   0.13206   0.16066   0.00000  Uiso   1.00
N227   N     0.14475   0.84066   0.18610   0.00000  Uiso   1.00
N228   N     0.24766   0.20492   0.82426   0.00000  Uiso   1.00
N229   N     0.97666   0.17908   0.01854   0.00000  Uiso   1.00
N230   N     0.12271   0.88767   0.04398   0.00000  Uiso   1.00
C231   C     0.36032   0.62724   0.61687   0.00000  Uiso   1.00
C232   C     0.32987   0.67495   0.54067   0.00000  Uiso   1.00
C233   C     0.29200   0.74127   0.55576   0.00000  Uiso   1.00
C234   C     0.26867   0.77654   0.47676   0.00000  Uiso   1.00
C235   C     0.21925   0.85524   0.37224   0.00000  Uiso   1.00
C236   C     0.40456   0.68209   0.59421   0.00000  Uiso   1.00
C237   C     0.42948   0.75440   0.65432   0.00000  Uiso   1.00
C238   C     0.46902   0.79567   0.62039   0.00000  Uiso   1.00
C239   C     0.53558   0.88538   0.59902   0.00000  Uiso   1.00
C240   C     0.36430   0.48681   0.60122   0.00000  Uiso   1.00
C241   C     0.35539   0.39491   0.66723   0.00000  Uiso   1.00
C242   C     0.36105   0.27176   0.63921   0.00000  Uiso   1.00
C243   C     0.36509   0.05826   0.62871   0.00000  Uiso   1.00
C244   C     0.38624   0.57195   0.44974   0.00000  Uiso   1.00
C245   C     0.34395   0.64492   0.44989   0.00000  Uiso   1.00
C246   C     0.32067   0.68009   0.37085   0.00000  Uiso   1.00
C247   C     0.28277   0.74645   0.38582   0.00000  Uiso   1.00
C248   C     0.41864   0.65206   0.50343   0.00000  Uiso   1.00
C249   C     0.45815   0.69323   0.46941   0.00000  Uiso   1.00
C250   C     0.48313   0.76558   0.52945   0.00000  Uiso   1.00
C251   C     0.37838   0.45677   0.51044   0.00000  Uiso   1.00
C252   C     0.38406   0.33374   0.48231   0.00000  Uiso   1.00
C253   C     0.37515   0.24167   0.54826   0.00000  Uiso   1.00
H254   H     0.34937   0.65062   0.68755   0.00000  Uiso   1.00
H255   H     0.28112   0.76450   0.62602   0.00000  Uiso   1.00
H256   H     0.41858   0.77761   0.72457   0.00000  Uiso   1.00
H257   H     0.34449   0.41818   0.73747   0.00000  Uiso   1.00
H258   H     0.21166   0.87754   0.51777   0.00000  Uiso   1.00
H259   H     0.50152   0.90516   0.72557   0.00000  Uiso   1.00
H260   H     0.34530   0.14723   0.75278   0.00000  Uiso   1.00
H261   H     0.39720   0.54857   0.37907   0.00000  Uiso   1.00
H262   H     0.33157   0.65684   0.30061   0.00000  Uiso   1.00
H263   H     0.46904   0.66996   0.39916   0.00000  Uiso   1.00
H264   H     0.39495   0.31053   0.41206   0.00000  Uiso   1.00
H265   H     0.25262   0.79017   0.25365   0.00000  Uiso   1.00
H266   H     0.54247   0.81779   0.46146   0.00000  Uiso   1.00
H267   H     0.38625   0.05986   0.48866   0.00000  Uiso   1.00
O268   O     0.18811   0.90696   0.33966   0.00000  Uiso   1.00
O269   O     0.56839   0.94317   0.61230   0.00000  Uiso   1.00
O270   O     0.36343   0.94879   0.64799   0.00000  Uiso   1.00
N271   N     0.23030   0.84210   0.46638   0.00000  Uiso   1.00
N272   N     0.50130   0.86794   0.66066   0.00000  Uiso   1.00
N273   N     0.35525   0.15934   0.68610   0.00000  Uiso   1.00
N274   N     0.25234   0.79508   0.32426   0.00000  Uiso   1.00
N275   N     0.52334   0.82092   0.51854   0.00000  Uiso   1.00
N276   N     0.37729   0.11233   0.54398   0.00000  Uiso   1.00
C277   C     0.86032   0.87276   0.38313   0.00000  Uiso   1.00
C278   C     0.82987   0.82505   0.45933   0.00000  Uiso   1.00
C279   C     0.79200   0.75873   0.44424   0.00000  Uiso   1.00
C280   C     0.76867   0.72346   0.52324   0.00000  Uiso   1.00
C281   C     0.71925   0.64476   0.62776   0.00000  Uiso   1.00
C282   C     0.90456   0.81791   0.40579   0.00000  Uiso   1.00
C283   C     0.92948   0.74560   0.34568   0.00000  Uiso   1.00
C284   C     0.96902   0.70433   0.37961   0.00000  Uiso   1.00
C285   C     0.03558   0.61462   0.40098   0.00000  Uiso   1.00
C286   C     0.86430   0.01319   0.39878   0.00000  Uiso   1.00
C287   C     0.85539   0.10509   0.33277   0.00000  Uiso   1.00
C288   C     0.86105   0.22824   0.36079   0.00000  Uiso   1.00
C289   C     0.86509   0.44174   0.37129   0.00000  Uiso   1.00
C290   C     0.88624   0.92805   0.55026   0.00000  Uiso   1.00
C291   C     0.84395   0.85508   0.55011   0.00000  Uiso   1.00
C292   C     0.82067   0.81991   0.62915   0.00000  Uiso   1.00
C293   C     0.78277   0.75355   0.61418   0.00000  Uiso   1.00
C294   C     0.91864   0.84794   0.49657   0.00000  Uiso   1.00
C295   C     0.95815   0.80677   0.53059   0.00000  Uiso   1.00
C296   C     0.98313   0.73442   0.47055   0.00000  Uiso   1.00
C297   C     0.87838   0.04323   0.48956   0.00000  Uiso   1.00
C298   C     0.88406   0.16626   0.51769   0.00000  Uiso   1.00
C299   C     0.87515   0.25833   0.45174   0.00000  Uiso   1.00
H300   H     0.84937   0.84938   0.31245   0.00000  Uiso   1.00
H301   H     0.78112   0.73550   0.37398   0.00000  Uiso   1.00
H302   H     0.91858   0.72239   0.27543   0.00000  Uiso   1.00
H303   H     0.84449   0.08182   0.26253   0.00000  Uiso   1.00
H304   H     0.71166   0.62246   0.48223   0.00000  Uiso   1.00
H305   H     0.00152   0.59484   0.27443   0.00000  Uiso   1.00
H306   H     0.84530   0.35277   0.24722   0.00000  Uiso   1.00
H307   H     0.89720   0.95143   0.62093   0.00000  Uiso   1.00
H308   H     0.83157   0.84316   0.69939   0.00000  Uiso   1.00
H309   H     0.96904   0.83004   0.60084   0.00000  Uiso   1.00
H310   H     0.89495   0.18947   0.58794   0.00000  Uiso   1.00
H311   H     0.75262   0.70983   0.74635   0.00000  Uiso   1.00
H312   H     0.04247   0.68221   0.53854   0.00000  Uiso   1.00
H313   H     0.88625   0.44014   0.51134   0.00000  Uiso   1.00
O314   O     0.68811   0.59304   0.66034   0.00000  Uiso   1.00
O315   O     0.06839   0.55683   0.38770   0.00000  Uiso   1.00
O316   O     0.86343   0.55121   0.35201   0.00000  Uiso   1.00
N317   N     0.73030   0.65790   0.53362   0.00000  Uiso   1.00
N318   N     0.00130   0.63206   0.33934   0.00000  Uiso   1.00
N319   N     0.85525   0.34066   0.31390   0.00000  Uiso   1.00
N320   N     0.75234   0.70492   0.67574   0.00000  Uiso   1.00
N321   N     0.02334   0.67908   0.48146   0.00000  Uiso   1.00
N322   N     0.87729   0.38767   0.45602   0.00000  Uiso   1.00
C323   C     0.63968   0.12724   0.88313   0.00000  Uiso   1.00
C324   C     0.67013   0.17495   0.95933   0.00000  Uiso   1.00
C325   C     0.70800   0.24127   0.94424   0.00000  Uiso   1.00
C326   C     0.73133   0.27654   0.02324   0.00000  Uiso   1.00
C327   C     0.78075   0.35524   0.12776   0.00000  Uiso   1.00
C328   C     0.59544   0.18209   0.90579   0.00000  Uiso   1.00
C329   C     0.57052   0.25440   0.84568   0.00000  Uiso   1.00
C330   C     0.53098   0.29567   0.87961   0.00000  Uiso   1.00
C331   C     0.46442   0.38538   0.90098   0.00000  Uiso   1.00
C332   C     0.63570   0.98681   0.89878   0.00000  Uiso   1.00
C333   C     0.64461   0.89491   0.83277   0.00000  Uiso   1.00
C334   C     0.63895   0.77176   0.86079   0.00000  Uiso   1.00
C335   C     0.63491   0.55826   0.87129   0.00000  Uiso   1.00
C336   C     0.61376   0.07195   0.05026   0.00000  Uiso   1.00
C337   C     0.65605   0.14492   0.05011   0.00000  Uiso   1.00
C338   C     0.67933   0.18009   0.12915   0.00000  Uiso   1.00
C339   C     0.71723   0.24645   0.11418   0.00000  Uiso   1.00
C340   C     0.58136   0.15206   0.99657   0.00000  Uiso   1.00
C341   C     0.54185   0.19323   0.03059   0.00000  Uiso   1.00
C342   C     0.51687   0.26558   0.97055   0.00000  Uiso   1.00
C343   C     0.62162   0.95677   0.98956   0.00000  Uiso   1.00
C344   C     0.61594   0.83374   0.01769   0.00000  Uiso   1.00
C345   C     0.62485   0.74167   0.95174   0.00000  Uiso   1.00
H346   H     0.65063   0.15062   0.81245   0.00000  Uiso   1.00
H347   H     0.71888   0.26450   0.87398   0.00000  Uiso   1.00
H348   H     0.58142   0.27761   0.77543   0.00000  Uiso   1.00
H349   H     0.65551   0.91818   0.76253   0.00000  Uiso   1.00
H350   H     0.78834   0.37754   0.98223   0.00000  Uiso   1.00
H351   H     0.49848   0.40516   0.77443   0.00000  Uiso   1.00
H352   H     0.65470   0.64723   0.74722   0.00000  Uiso   1.00
H353   H     0.60280   0.04857   0.12093   0.00000  Uiso   1.00
H354   H     0.66843   0.15684   0.19939   0.00000  Uiso   1.00
H355   H     0.53096   0.16996   0.10084   0.00000  Uiso   1.00
H356   H     0.60505   0.81053   0.08794   0.00000  Uiso   1.00
H357   H     0.74738   0.29017   0.24635   0.00000  Uiso   1.00
H358   H     0.45753   0.31779   0.03854   0.00000  Uiso   1.00
H359   H     0.61375   0.55986   0.01134   0.00000  Uiso   1.00
O360   O     0.81189   0.40696   0.16034   0.00000  Uiso   1.00
O361   O     0.43161   0.44317   0.88770   0.00000  Uiso   1.00
O362   O     0.63657   0.44879   0.85201   0.00000  Uiso   1.00
N363   N     0.76970   0.34210   0.03362   0.00000  Uiso   1.00
N364   N     0.49870   0.36794   0.83934   0.00000  Uiso   1.00
N365   N     0.64475   0.65934   0.81390   0.00000  Uiso   1.00
N366   N     0.74766   0.29508   0.17574   0.00000  Uiso   1.00
N367   N     0.47666   0.32092   0.98146   0.00000  Uiso   1.00
N368   N     0.62271   0.61233   0.95602   0.00000  Uiso   1.00
