data_job_01198
_audit_creation_date              2018-12-19
_audit_creation_method            'Materials Studio'
_symmetry_space_group_name_H-M    'P1'
_symmetry_Int_Tables_number       1
_symmetry_cell_setting            triclinic
loop_
_symmetry_equiv_pos_as_xyz
  x,y,z
_cell_length_a                    14.8308
_cell_length_b                    16.2390
_cell_length_c                    22.7103
_cell_angle_alpha                 90.0000
_cell_angle_beta                  90.0000
_cell_angle_gamma                 90.0000
loop_
_atom_site_label
_atom_site_type_symbol
_atom_site_fract_x
_atom_site_fract_y
_atom_site_fract_z
_atom_site_U_iso_or_equiv
_atom_site_adp_type
_atom_site_occupancy
C1     C     0.97193   0.79074   0.93053   0.00000  Uiso   1.00
C2     C     0.92841   0.83277   0.87763   0.00000  Uiso   1.00
C3     C     0.97394   0.87364   0.83296   0.00000  Uiso   1.00
C4     C     0.92190   0.90799   0.78847   0.00000  Uiso   1.00
C5     C     0.86865   0.97424   0.70631   0.00000  Uiso   1.00
C6     C     0.92927   0.82976   0.98489   0.00000  Uiso   1.00
C7     C     0.97553   0.86809   0.03039   0.00000  Uiso   1.00
C8     C     0.92422   0.89990   0.07619   0.00000  Uiso   1.00
C9     C     0.87231   0.96143   0.16057   0.00000  Uiso   1.00
C10    C     0.93929   0.70171   0.92937   0.00000  Uiso   1.00
C11    C     0.99398   0.63238   0.92822   0.00000  Uiso   1.00
C12    C     0.95110   0.55638   0.92729   0.00000  Uiso   1.00
C13    C     0.91475   0.41910   0.92547   0.00000  Uiso   1.00
C14    C     0.79855   0.77906   0.93096   0.00000  Uiso   1.00
C15    C     0.83424   0.82642   0.87787   0.00000  Uiso   1.00
C16    C     0.78212   0.86072   0.83344   0.00000  Uiso   1.00
C17    C     0.82756   0.90163   0.78870   0.00000  Uiso   1.00
C18    C     0.83510   0.82342   0.98512   0.00000  Uiso   1.00
C19    C     0.78371   0.85517   0.03087   0.00000  Uiso   1.00
C20    C     0.82988   0.89355   0.07643   0.00000  Uiso   1.00
C21    C     0.84512   0.69537   0.92961   0.00000  Uiso   1.00
C22    C     0.80215   0.61946   0.92869   0.00000  Uiso   1.00
C23    C     0.85676   0.55003   0.92753   0.00000  Uiso   1.00
H24    H     0.04524   0.79568   0.93035   0.00000  Uiso   1.00
H25    H     0.04682   0.87854   0.83280   0.00000  Uiso   1.00
H26    H     0.04841   0.87298   0.03020   0.00000  Uiso   1.00
H27    H     0.06685   0.63731   0.92804   0.00000  Uiso   1.00
H28    H     0.00703   0.96763   0.72475   0.00000  Uiso   1.00
H29    H     0.01039   0.95589   0.14100   0.00000  Uiso   1.00
H30    H     0.04927   0.45893   0.92557   0.00000  Uiso   1.00
H31    H     0.72523   0.77413   0.93115   0.00000  Uiso   1.00
H32    H     0.70924   0.85580   0.83363   0.00000  Uiso   1.00
H33    H     0.71084   0.85025   0.03103   0.00000  Uiso   1.00
H34    H     0.72928   0.61457   0.92887   0.00000  Uiso   1.00
H35    H     0.73304   0.94918   0.72543   0.00000  Uiso   1.00
H36    H     0.73640   0.93743   0.14168   0.00000  Uiso   1.00
H37    H     0.77529   0.44047   0.92624   0.00000  Uiso   1.00
O38    O     0.86529   0.01255   0.66094   0.00000  Uiso   1.00
O39    O     0.86970   0.99712   0.20704   0.00000  Uiso   1.00
O40    O     0.92072   0.34513   0.92440   0.00000  Uiso   1.00
N41    N     0.94474   0.95207   0.73829   0.00000  Uiso   1.00
N42    N     0.94788   0.94110   0.12745   0.00000  Uiso   1.00
N43    N     0.98423   0.47648   0.92606   0.00000  Uiso   1.00
N44    N     0.79731   0.94214   0.73865   0.00000  Uiso   1.00
N45    N     0.80045   0.93117   0.12781   0.00000  Uiso   1.00
N46    N     0.83681   0.46655   0.92642   0.00000  Uiso   1.00
C47    C     0.52807   0.20926   0.43053   0.00000  Uiso   1.00
C48    C     0.57159   0.16723   0.37763   0.00000  Uiso   1.00
C49    C     0.52606   0.12636   0.33296   0.00000  Uiso   1.00
C50    C     0.57810   0.09201   0.28847   0.00000  Uiso   1.00
C51    C     0.63135   0.02576   0.20631   0.00000  Uiso   1.00
C52    C     0.57073   0.17024   0.48489   0.00000  Uiso   1.00
C53    C     0.52447   0.13191   0.53039   0.00000  Uiso   1.00
C54    C     0.57578   0.10010   0.57619   0.00000  Uiso   1.00
C55    C     0.62769   0.03857   0.66057   0.00000  Uiso   1.00
C56    C     0.56071   0.29829   0.42937   0.00000  Uiso   1.00
C57    C     0.50602   0.36762   0.42822   0.00000  Uiso   1.00
C58    C     0.54890   0.44362   0.42729   0.00000  Uiso   1.00
C59    C     0.58525   0.58090   0.42547   0.00000  Uiso   1.00
C60    C     0.70145   0.22094   0.43096   0.00000  Uiso   1.00
C61    C     0.66576   0.17358   0.37787   0.00000  Uiso   1.00
C62    C     0.71788   0.13928   0.33344   0.00000  Uiso   1.00
C63    C     0.67244   0.09837   0.28870   0.00000  Uiso   1.00
C64    C     0.66490   0.17658   0.48512   0.00000  Uiso   1.00
C65    C     0.71629   0.14483   0.53087   0.00000  Uiso   1.00
C66    C     0.67012   0.10645   0.57643   0.00000  Uiso   1.00
C67    C     0.65488   0.30463   0.42961   0.00000  Uiso   1.00
C68    C     0.69785   0.38054   0.42869   0.00000  Uiso   1.00
C69    C     0.64324   0.44997   0.42753   0.00000  Uiso   1.00
H70    H     0.45476   0.20432   0.43035   0.00000  Uiso   1.00
H71    H     0.45318   0.12146   0.33280   0.00000  Uiso   1.00
H72    H     0.45159   0.12702   0.53020   0.00000  Uiso   1.00
H73    H     0.43315   0.36269   0.42804   0.00000  Uiso   1.00
H74    H     0.49297   0.03237   0.22475   0.00000  Uiso   1.00
H75    H     0.48961   0.04411   0.64100   0.00000  Uiso   1.00
H76    H     0.45073   0.54107   0.42557   0.00000  Uiso   1.00
H77    H     0.77477   0.22587   0.43115   0.00000  Uiso   1.00
H78    H     0.79076   0.14420   0.33363   0.00000  Uiso   1.00
H79    H     0.78916   0.14975   0.53103   0.00000  Uiso   1.00
H80    H     0.77072   0.38543   0.42887   0.00000  Uiso   1.00
H81    H     0.76696   0.05082   0.22543   0.00000  Uiso   1.00
H82    H     0.76360   0.06257   0.64168   0.00000  Uiso   1.00
H83    H     0.72471   0.55953   0.42624   0.00000  Uiso   1.00
O84    O     0.63471   0.98745   0.16094   0.00000  Uiso   1.00
O85    O     0.63030   0.00288   0.70704   0.00000  Uiso   1.00
O86    O     0.57928   0.65487   0.42440   0.00000  Uiso   1.00
N87    N     0.55526   0.04793   0.23829   0.00000  Uiso   1.00
N88    N     0.55212   0.05890   0.62745   0.00000  Uiso   1.00
N89    N     0.51577   0.52352   0.42606   0.00000  Uiso   1.00
N90    N     0.70269   0.05786   0.23865   0.00000  Uiso   1.00
N91    N     0.69955   0.06883   0.62781   0.00000  Uiso   1.00
N92    N     0.66319   0.53345   0.42642   0.00000  Uiso   1.00
C93    C     0.02807   0.29074   0.56947   0.00000  Uiso   1.00
C94    C     0.07159   0.33277   0.62237   0.00000  Uiso   1.00
C95    C     0.02606   0.37364   0.66704   0.00000  Uiso   1.00
C96    C     0.07810   0.40799   0.71153   0.00000  Uiso   1.00
C97    C     0.13135   0.47424   0.79369   0.00000  Uiso   1.00
C98    C     0.07073   0.32976   0.51511   0.00000  Uiso   1.00
C99    C     0.02447   0.36809   0.46961   0.00000  Uiso   1.00
C100   C     0.07578   0.39990   0.42381   0.00000  Uiso   1.00
C101   C     0.12769   0.46143   0.33943   0.00000  Uiso   1.00
C102   C     0.06071   0.20171   0.57063   0.00000  Uiso   1.00
C103   C     0.00602   0.13238   0.57178   0.00000  Uiso   1.00
C104   C     0.04890   0.05638   0.57271   0.00000  Uiso   1.00
C105   C     0.08525   0.91910   0.57453   0.00000  Uiso   1.00
C106   C     0.20145   0.27906   0.56904   0.00000  Uiso   1.00
C107   C     0.16576   0.32642   0.62213   0.00000  Uiso   1.00
C108   C     0.21788   0.36072   0.66656   0.00000  Uiso   1.00
C109   C     0.17244   0.40163   0.71130   0.00000  Uiso   1.00
C110   C     0.16490   0.32342   0.51488   0.00000  Uiso   1.00
C111   C     0.21629   0.35517   0.46913   0.00000  Uiso   1.00
C112   C     0.17012   0.39355   0.42357   0.00000  Uiso   1.00
C113   C     0.15488   0.19537   0.57039   0.00000  Uiso   1.00
C114   C     0.19785   0.11946   0.57131   0.00000  Uiso   1.00
C115   C     0.14324   0.05003   0.57247   0.00000  Uiso   1.00
H116   H     0.95476   0.29568   0.56965   0.00000  Uiso   1.00
H117   H     0.95318   0.37854   0.66720   0.00000  Uiso   1.00
H118   H     0.95159   0.37298   0.46980   0.00000  Uiso   1.00
H119   H     0.93315   0.13731   0.57196   0.00000  Uiso   1.00
H120   H     0.99297   0.46763   0.77525   0.00000  Uiso   1.00
H121   H     0.98961   0.45589   0.35900   0.00000  Uiso   1.00
H122   H     0.95073   0.95893   0.57443   0.00000  Uiso   1.00
H123   H     0.27477   0.27413   0.56885   0.00000  Uiso   1.00
H124   H     0.29076   0.35580   0.66637   0.00000  Uiso   1.00
H125   H     0.28916   0.35025   0.46897   0.00000  Uiso   1.00
H126   H     0.27072   0.11457   0.57113   0.00000  Uiso   1.00
H127   H     0.26696   0.44918   0.77457   0.00000  Uiso   1.00
H128   H     0.26360   0.43743   0.35832   0.00000  Uiso   1.00
H129   H     0.22471   0.94047   0.57376   0.00000  Uiso   1.00
O130   O     0.13471   0.51255   0.83906   0.00000  Uiso   1.00
O131   O     0.13030   0.49712   0.29296   0.00000  Uiso   1.00
O132   O     0.07928   0.84513   0.57560   0.00000  Uiso   1.00
N133   N     0.05526   0.45207   0.76171   0.00000  Uiso   1.00
N134   N     0.05212   0.44110   0.37255   0.00000  Uiso   1.00
N135   N     0.01577   0.97648   0.57394   0.00000  Uiso   1.00
N136   N     0.20269   0.44214   0.76135   0.00000  Uiso   1.00
N137   N     0.19955   0.43117   0.37219   0.00000  Uiso   1.00
N138   N     0.16319   0.96655   0.57358   0.00000  Uiso   1.00
C139   C     0.47193   0.70926   0.06947   0.00000  Uiso   1.00
C140   C     0.42841   0.66723   0.12237   0.00000  Uiso   1.00
C141   C     0.47394   0.62636   0.16704   0.00000  Uiso   1.00
C142   C     0.42190   0.59201   0.21153   0.00000  Uiso   1.00
C143   C     0.36865   0.52576   0.29369   0.00000  Uiso   1.00
C144   C     0.42927   0.67024   0.01511   0.00000  Uiso   1.00
C145   C     0.47553   0.63191   0.96961   0.00000  Uiso   1.00
C146   C     0.42422   0.60010   0.92381   0.00000  Uiso   1.00
C147   C     0.37231   0.53857   0.83943   0.00000  Uiso   1.00
C148   C     0.43929   0.79829   0.07063   0.00000  Uiso   1.00
C149   C     0.49398   0.86762   0.07178   0.00000  Uiso   1.00
C150   C     0.45110   0.94362   0.07271   0.00000  Uiso   1.00
C151   C     0.41475   0.08090   0.07453   0.00000  Uiso   1.00
C152   C     0.29855   0.72094   0.06904   0.00000  Uiso   1.00
C153   C     0.33424   0.67358   0.12213   0.00000  Uiso   1.00
C154   C     0.28212   0.63928   0.16656   0.00000  Uiso   1.00
C155   C     0.32756   0.59837   0.21130   0.00000  Uiso   1.00
C156   C     0.33510   0.67658   0.01488   0.00000  Uiso   1.00
C157   C     0.28371   0.64483   0.96913   0.00000  Uiso   1.00
C158   C     0.32988   0.60645   0.92357   0.00000  Uiso   1.00
C159   C     0.34512   0.80463   0.07039   0.00000  Uiso   1.00
C160   C     0.30215   0.88054   0.07131   0.00000  Uiso   1.00
C161   C     0.35676   0.94997   0.07247   0.00000  Uiso   1.00
H162   H     0.54524   0.70432   0.06965   0.00000  Uiso   1.00
H163   H     0.54682   0.62146   0.16720   0.00000  Uiso   1.00
H164   H     0.54841   0.62702   0.96980   0.00000  Uiso   1.00
H165   H     0.56685   0.86269   0.07196   0.00000  Uiso   1.00
H166   H     0.50703   0.53237   0.27525   0.00000  Uiso   1.00
H167   H     0.51039   0.54411   0.85900   0.00000  Uiso   1.00
H168   H     0.54927   0.04107   0.07443   0.00000  Uiso   1.00
H169   H     0.22523   0.72587   0.06885   0.00000  Uiso   1.00
H170   H     0.20924   0.64420   0.16637   0.00000  Uiso   1.00
H171   H     0.21084   0.64975   0.96897   0.00000  Uiso   1.00
H172   H     0.22928   0.88543   0.07113   0.00000  Uiso   1.00
H173   H     0.23304   0.55082   0.27457   0.00000  Uiso   1.00
H174   H     0.23640   0.56257   0.85832   0.00000  Uiso   1.00
H175   H     0.27529   0.05953   0.07376   0.00000  Uiso   1.00
O176   O     0.36529   0.48745   0.33906   0.00000  Uiso   1.00
O177   O     0.36970   0.50288   0.79296   0.00000  Uiso   1.00
O178   O     0.42072   0.15487   0.07560   0.00000  Uiso   1.00
N179   N     0.44474   0.54793   0.26171   0.00000  Uiso   1.00
N180   N     0.44788   0.55890   0.87255   0.00000  Uiso   1.00
N181   N     0.48423   0.02352   0.07394   0.00000  Uiso   1.00
N182   N     0.29731   0.55786   0.26135   0.00000  Uiso   1.00
N183   N     0.30045   0.56883   0.87219   0.00000  Uiso   1.00
N184   N     0.33681   0.03345   0.07358   0.00000  Uiso   1.00
C185   C     0.02807   0.20926   0.06947   0.00000  Uiso   1.00
C186   C     0.07159   0.16723   0.12237   0.00000  Uiso   1.00
C187   C     0.02606   0.12636   0.16704   0.00000  Uiso   1.00
C188   C     0.07810   0.09201   0.21153   0.00000  Uiso   1.00
C189   C     0.13135   0.02576   0.29369   0.00000  Uiso   1.00
C190   C     0.07073   0.17024   0.01511   0.00000  Uiso   1.00
C191   C     0.02447   0.13191   0.96961   0.00000  Uiso   1.00
C192   C     0.07578   0.10010   0.92381   0.00000  Uiso   1.00
C193   C     0.12769   0.03857   0.83943   0.00000  Uiso   1.00
C194   C     0.06071   0.29829   0.07063   0.00000  Uiso   1.00
C195   C     0.00602   0.36762   0.07178   0.00000  Uiso   1.00
C196   C     0.04890   0.44362   0.07271   0.00000  Uiso   1.00
C197   C     0.08525   0.58090   0.07453   0.00000  Uiso   1.00
C198   C     0.20145   0.22094   0.06904   0.00000  Uiso   1.00
C199   C     0.16576   0.17358   0.12213   0.00000  Uiso   1.00
C200   C     0.21788   0.13928   0.16656   0.00000  Uiso   1.00
C201   C     0.17244   0.09837   0.21130   0.00000  Uiso   1.00
C202   C     0.16490   0.17658   0.01488   0.00000  Uiso   1.00
C203   C     0.21629   0.14483   0.96913   0.00000  Uiso   1.00
C204   C     0.17012   0.10645   0.92357   0.00000  Uiso   1.00
C205   C     0.15488   0.30463   0.07039   0.00000  Uiso   1.00
C206   C     0.19785   0.38054   0.07131   0.00000  Uiso   1.00
C207   C     0.14324   0.44997   0.07247   0.00000  Uiso   1.00
H208   H     0.95476   0.20432   0.06965   0.00000  Uiso   1.00
H209   H     0.95318   0.12146   0.16720   0.00000  Uiso   1.00
H210   H     0.95159   0.12702   0.96980   0.00000  Uiso   1.00
H211   H     0.93315   0.36269   0.07196   0.00000  Uiso   1.00
H212   H     0.99297   0.03237   0.27525   0.00000  Uiso   1.00
H213   H     0.98961   0.04411   0.85900   0.00000  Uiso   1.00
H214   H     0.95073   0.54107   0.07443   0.00000  Uiso   1.00
H215   H     0.27477   0.22587   0.06885   0.00000  Uiso   1.00
H216   H     0.29076   0.14420   0.16637   0.00000  Uiso   1.00
H217   H     0.28916   0.14975   0.96897   0.00000  Uiso   1.00
H218   H     0.27072   0.38543   0.07113   0.00000  Uiso   1.00
H219   H     0.26696   0.05082   0.27457   0.00000  Uiso   1.00
H220   H     0.26360   0.06257   0.85832   0.00000  Uiso   1.00
H221   H     0.22471   0.55953   0.07376   0.00000  Uiso   1.00
O222   O     0.13471   0.98745   0.33906   0.00000  Uiso   1.00
O223   O     0.13030   0.00288   0.79296   0.00000  Uiso   1.00
O224   O     0.07928   0.65487   0.07560   0.00000  Uiso   1.00
N225   N     0.05526   0.04793   0.26171   0.00000  Uiso   1.00
N226   N     0.05212   0.05890   0.87255   0.00000  Uiso   1.00
N227   N     0.01577   0.52352   0.07394   0.00000  Uiso   1.00
N228   N     0.20269   0.05786   0.26135   0.00000  Uiso   1.00
N229   N     0.19955   0.06883   0.87219   0.00000  Uiso   1.00
N230   N     0.16319   0.53345   0.07358   0.00000  Uiso   1.00
C231   C     0.47193   0.79074   0.56947   0.00000  Uiso   1.00
C232   C     0.42841   0.83277   0.62237   0.00000  Uiso   1.00
C233   C     0.47394   0.87364   0.66704   0.00000  Uiso   1.00
C234   C     0.42190   0.90799   0.71153   0.00000  Uiso   1.00
C235   C     0.36865   0.97424   0.79369   0.00000  Uiso   1.00
C236   C     0.42927   0.82976   0.51511   0.00000  Uiso   1.00
C237   C     0.47553   0.86809   0.46961   0.00000  Uiso   1.00
C238   C     0.42422   0.89990   0.42381   0.00000  Uiso   1.00
C239   C     0.37231   0.96143   0.33943   0.00000  Uiso   1.00
C240   C     0.43929   0.70171   0.57063   0.00000  Uiso   1.00
C241   C     0.49398   0.63238   0.57178   0.00000  Uiso   1.00
C242   C     0.45110   0.55638   0.57271   0.00000  Uiso   1.00
C243   C     0.41475   0.41910   0.57453   0.00000  Uiso   1.00
C244   C     0.29855   0.77906   0.56904   0.00000  Uiso   1.00
C245   C     0.33424   0.82642   0.62213   0.00000  Uiso   1.00
C246   C     0.28212   0.86072   0.66656   0.00000  Uiso   1.00
C247   C     0.32756   0.90163   0.71130   0.00000  Uiso   1.00
C248   C     0.33510   0.82342   0.51488   0.00000  Uiso   1.00
C249   C     0.28371   0.85517   0.46913   0.00000  Uiso   1.00
C250   C     0.32988   0.89355   0.42357   0.00000  Uiso   1.00
C251   C     0.34512   0.69537   0.57039   0.00000  Uiso   1.00
C252   C     0.30215   0.61946   0.57131   0.00000  Uiso   1.00
C253   C     0.35676   0.55003   0.57247   0.00000  Uiso   1.00
H254   H     0.54524   0.79568   0.56965   0.00000  Uiso   1.00
H255   H     0.54682   0.87854   0.66720   0.00000  Uiso   1.00
H256   H     0.54841   0.87298   0.46980   0.00000  Uiso   1.00
H257   H     0.56685   0.63731   0.57196   0.00000  Uiso   1.00
H258   H     0.50703   0.96763   0.77525   0.00000  Uiso   1.00
H259   H     0.51039   0.95589   0.35900   0.00000  Uiso   1.00
H260   H     0.54927   0.45893   0.57443   0.00000  Uiso   1.00
H261   H     0.22523   0.77413   0.56885   0.00000  Uiso   1.00
H262   H     0.20924   0.85580   0.66637   0.00000  Uiso   1.00
H263   H     0.21084   0.85025   0.46897   0.00000  Uiso   1.00
H264   H     0.22928   0.61457   0.57113   0.00000  Uiso   1.00
H265   H     0.23304   0.94918   0.77457   0.00000  Uiso   1.00
H266   H     0.23640   0.93743   0.35832   0.00000  Uiso   1.00
H267   H     0.27529   0.44047   0.57376   0.00000  Uiso   1.00
O268   O     0.36529   0.01255   0.83906   0.00000  Uiso   1.00
O269   O     0.36970   0.99712   0.29296   0.00000  Uiso   1.00
O270   O     0.42072   0.34513   0.57560   0.00000  Uiso   1.00
N271   N     0.44474   0.95207   0.76171   0.00000  Uiso   1.00
N272   N     0.44788   0.94110   0.37255   0.00000  Uiso   1.00
N273   N     0.48423   0.47648   0.57394   0.00000  Uiso   1.00
N274   N     0.29731   0.94214   0.76135   0.00000  Uiso   1.00
N275   N     0.30045   0.93117   0.37219   0.00000  Uiso   1.00
N276   N     0.33681   0.46655   0.57358   0.00000  Uiso   1.00
C277   C     0.97193   0.70926   0.43053   0.00000  Uiso   1.00
C278   C     0.92841   0.66723   0.37763   0.00000  Uiso   1.00
C279   C     0.97394   0.62636   0.33296   0.00000  Uiso   1.00
C280   C     0.92190   0.59201   0.28847   0.00000  Uiso   1.00
C281   C     0.86865   0.52576   0.20631   0.00000  Uiso   1.00
C282   C     0.92927   0.67024   0.48489   0.00000  Uiso   1.00
C283   C     0.97553   0.63191   0.53039   0.00000  Uiso   1.00
C284   C     0.92422   0.60010   0.57619   0.00000  Uiso   1.00
C285   C     0.87231   0.53857   0.66057   0.00000  Uiso   1.00
C286   C     0.93929   0.79829   0.42937   0.00000  Uiso   1.00
C287   C     0.99398   0.86762   0.42822   0.00000  Uiso   1.00
C288   C     0.95110   0.94362   0.42729   0.00000  Uiso   1.00
C289   C     0.91475   0.08090   0.42547   0.00000  Uiso   1.00
C290   C     0.79855   0.72094   0.43096   0.00000  Uiso   1.00
C291   C     0.83424   0.67358   0.37787   0.00000  Uiso   1.00
C292   C     0.78212   0.63928   0.33344   0.00000  Uiso   1.00
C293   C     0.82756   0.59837   0.28870   0.00000  Uiso   1.00
C294   C     0.83510   0.67658   0.48512   0.00000  Uiso   1.00
C295   C     0.78371   0.64483   0.53087   0.00000  Uiso   1.00
C296   C     0.82988   0.60645   0.57643   0.00000  Uiso   1.00
C297   C     0.84512   0.80463   0.42961   0.00000  Uiso   1.00
C298   C     0.80215   0.88054   0.42869   0.00000  Uiso   1.00
C299   C     0.85676   0.94997   0.42753   0.00000  Uiso   1.00
H300   H     0.04524   0.70432   0.43035   0.00000  Uiso   1.00
H301   H     0.04682   0.62146   0.33280   0.00000  Uiso   1.00
H302   H     0.04841   0.62702   0.53020   0.00000  Uiso   1.00
H303   H     0.06685   0.86269   0.42804   0.00000  Uiso   1.00
H304   H     0.00703   0.53237   0.22475   0.00000  Uiso   1.00
H305   H     0.01039   0.54411   0.64100   0.00000  Uiso   1.00
H306   H     0.04927   0.04107   0.42557   0.00000  Uiso   1.00
H307   H     0.72523   0.72587   0.43115   0.00000  Uiso   1.00
H308   H     0.70924   0.64420   0.33363   0.00000  Uiso   1.00
H309   H     0.71084   0.64975   0.53103   0.00000  Uiso   1.00
H310   H     0.72928   0.88543   0.42887   0.00000  Uiso   1.00
H311   H     0.73304   0.55082   0.22543   0.00000  Uiso   1.00
H312   H     0.73640   0.56257   0.64168   0.00000  Uiso   1.00
H313   H     0.77529   0.05953   0.42624   0.00000  Uiso   1.00
O314   O     0.86529   0.48745   0.16094   0.00000  Uiso   1.00
O315   O     0.86970   0.50288   0.70704   0.00000  Uiso   1.00
O316   O     0.92072   0.15487   0.42440   0.00000  Uiso   1.00
N317   N     0.94474   0.54793   0.23829   0.00000  Uiso   1.00
N318   N     0.94788   0.55890   0.62745   0.00000  Uiso   1.00
N319   N     0.98423   0.02352   0.42606   0.00000  Uiso   1.00
N320   N     0.79731   0.55786   0.23865   0.00000  Uiso   1.00
N321   N     0.80045   0.56883   0.62781   0.00000  Uiso   1.00
N322   N     0.83681   0.03345   0.42642   0.00000  Uiso   1.00
C323   C     0.52807   0.29074   0.93053   0.00000  Uiso   1.00
C324   C     0.57159   0.33277   0.87763   0.00000  Uiso   1.00
C325   C     0.52606   0.37364   0.83296   0.00000  Uiso   1.00
C326   C     0.57810   0.40799   0.78847   0.00000  Uiso   1.00
C327   C     0.63135   0.47424   0.70631   0.00000  Uiso   1.00
C328   C     0.57073   0.32976   0.98489   0.00000  Uiso   1.00
C329   C     0.52447   0.36809   0.03039   0.00000  Uiso   1.00
C330   C     0.57578   0.39990   0.07619   0.00000  Uiso   1.00
C331   C     0.62769   0.46143   0.16057   0.00000  Uiso   1.00
C332   C     0.56071   0.20171   0.92937   0.00000  Uiso   1.00
C333   C     0.50602   0.13238   0.92822   0.00000  Uiso   1.00
C334   C     0.54890   0.05638   0.92729   0.00000  Uiso   1.00
C335   C     0.58525   0.91910   0.92547   0.00000  Uiso   1.00
C336   C     0.70145   0.27906   0.93096   0.00000  Uiso   1.00
C337   C     0.66576   0.32642   0.87787   0.00000  Uiso   1.00
C338   C     0.71788   0.36072   0.83344   0.00000  Uiso   1.00
C339   C     0.67244   0.40163   0.78870   0.00000  Uiso   1.00
C340   C     0.66490   0.32342   0.98512   0.00000  Uiso   1.00
C341   C     0.71629   0.35517   0.03087   0.00000  Uiso   1.00
C342   C     0.67012   0.39355   0.07643   0.00000  Uiso   1.00
C343   C     0.65488   0.19537   0.92961   0.00000  Uiso   1.00
C344   C     0.69785   0.11946   0.92869   0.00000  Uiso   1.00
C345   C     0.64324   0.05003   0.92753   0.00000  Uiso   1.00
H346   H     0.45476   0.29568   0.93035   0.00000  Uiso   1.00
H347   H     0.45318   0.37854   0.83280   0.00000  Uiso   1.00
H348   H     0.45159   0.37298   0.03020   0.00000  Uiso   1.00
H349   H     0.43315   0.13731   0.92804   0.00000  Uiso   1.00
H350   H     0.49297   0.46763   0.72475   0.00000  Uiso   1.00
H351   H     0.48961   0.45589   0.14100   0.00000  Uiso   1.00
H352   H     0.45073   0.95893   0.92557   0.00000  Uiso   1.00
H353   H     0.77477   0.27413   0.93115   0.00000  Uiso   1.00
H354   H     0.79076   0.35580   0.83363   0.00000  Uiso   1.00
H355   H     0.78916   0.35025   0.03103   0.00000  Uiso   1.00
H356   H     0.77072   0.11457   0.92887   0.00000  Uiso   1.00
H357   H     0.76696   0.44918   0.72543   0.00000  Uiso   1.00
H358   H     0.76360   0.43743   0.14168   0.00000  Uiso   1.00
H359   H     0.72471   0.94047   0.92624   0.00000  Uiso   1.00
O360   O     0.63471   0.51255   0.66094   0.00000  Uiso   1.00
O361   O     0.63030   0.49712   0.20704   0.00000  Uiso   1.00
O362   O     0.57928   0.84513   0.92440   0.00000  Uiso   1.00
N363   N     0.55526   0.45207   0.73829   0.00000  Uiso   1.00
N364   N     0.55212   0.44110   0.12745   0.00000  Uiso   1.00
N365   N     0.51577   0.97648   0.92606   0.00000  Uiso   1.00
N366   N     0.70269   0.44214   0.73865   0.00000  Uiso   1.00
N367   N     0.69955   0.43117   0.12781   0.00000  Uiso   1.00
N368   N     0.66319   0.96655   0.92642   0.00000  Uiso   1.00
