data_job_00001
_audit_creation_date              2018-12-19
_audit_creation_method            'Materials Studio'
_symmetry_space_group_name_H-M    'P1'
_symmetry_Int_Tables_number       1
_symmetry_cell_setting            triclinic
loop_
_symmetry_equiv_pos_as_xyz
  x,y,z
_cell_length_a                    12.7573
_cell_length_b                    7.4980
_cell_length_c                    12.7591
_cell_angle_alpha                 90.0000
_cell_angle_beta                  59.9998
_cell_angle_gamma                 90.0000
loop_
_atom_site_label
_atom_site_type_symbol
_atom_site_fract_x
_atom_site_fract_y
_atom_site_fract_z
_atom_site_U_iso_or_equiv
_atom_site_adp_type
_atom_site_occupancy
C1     C     0.33327   0.57807   0.83334   0.00000  Uiso   1.00
C2     C     0.30402   0.65661   0.74067   0.00000  Uiso   1.00
C3     C     0.27944   0.55978   0.66274   0.00000  Uiso   1.00
C4     C     0.25484   0.65645   0.58471   0.00000  Uiso   1.00
C5     C     0.45521   0.65662   0.80409   0.00000  Uiso   1.00
C6     C     0.55773   0.55978   0.77950   0.00000  Uiso   1.00
C7     C     0.66039   0.65645   0.75487   0.00000  Uiso   1.00
C8     C     0.24060   0.65661   0.95526   0.00000  Uiso   1.00
C9     C     0.16270   0.55978   0.05778   0.00000  Uiso   1.00
C10    C     0.08469   0.65645   0.16044   0.00000  Uiso   1.00
H11    H     0.33327   0.43266   0.83334   0.00000  Uiso   1.00
H12    H     0.27946   0.41524   0.66276   0.00000  Uiso   1.00
H13    H     0.55770   0.41524   0.77952   0.00000  Uiso   1.00
H14    H     0.16273   0.41524   0.05775   0.00000  Uiso   1.00
H15    H     0.21985   0.47830   0.47361   0.00000  Uiso   1.00
H16    H     0.80652   0.47830   0.71984   0.00000  Uiso   1.00
H17    H     0.97364   0.47830   0.30655   0.00000  Uiso   1.00
N18    N     0.22721   0.60380   0.49703   0.00000  Uiso   1.00
N19    N     0.77572   0.60380   0.72723   0.00000  Uiso   1.00
N20    N     0.99707   0.60380   0.27576   0.00000  Uiso   1.00
C21    C     0.66673   0.07807   0.16666   0.00000  Uiso   1.00
C22    C     0.69598   0.15661   0.25933   0.00000  Uiso   1.00
C23    C     0.72056   0.05978   0.33726   0.00000  Uiso   1.00
C24    C     0.74516   0.15645   0.41529   0.00000  Uiso   1.00
C25    C     0.54479   0.15662   0.19591   0.00000  Uiso   1.00
C26    C     0.44227   0.05978   0.22050   0.00000  Uiso   1.00
C27    C     0.33961   0.15645   0.24513   0.00000  Uiso   1.00
C28    C     0.75940   0.15661   0.04474   0.00000  Uiso   1.00
C29    C     0.83730   0.05978   0.94222   0.00000  Uiso   1.00
C30    C     0.91531   0.15645   0.83956   0.00000  Uiso   1.00
H31    H     0.66673   0.93266   0.16666   0.00000  Uiso   1.00
H32    H     0.72054   0.91524   0.33724   0.00000  Uiso   1.00
H33    H     0.44230   0.91524   0.22048   0.00000  Uiso   1.00
H34    H     0.83727   0.91524   0.94225   0.00000  Uiso   1.00
H35    H     0.78015   0.97830   0.52639   0.00000  Uiso   1.00
H36    H     0.19348   0.97830   0.28016   0.00000  Uiso   1.00
H37    H     0.02636   0.97830   0.69345   0.00000  Uiso   1.00
N38    N     0.77279   0.10380   0.50297   0.00000  Uiso   1.00
N39    N     0.22428   0.10380   0.27277   0.00000  Uiso   1.00
N40    N     0.00293   0.10380   0.72424   0.00000  Uiso   1.00
C41    C     0.66673   0.42193   0.16666   0.00000  Uiso   1.00
C42    C     0.69598   0.34339   0.25933   0.00000  Uiso   1.00
C43    C     0.72056   0.44022   0.33726   0.00000  Uiso   1.00
C44    C     0.74516   0.34355   0.41529   0.00000  Uiso   1.00
C45    C     0.54479   0.34338   0.19591   0.00000  Uiso   1.00
C46    C     0.44227   0.44022   0.22050   0.00000  Uiso   1.00
C47    C     0.33961   0.34355   0.24513   0.00000  Uiso   1.00
C48    C     0.75940   0.34339   0.04474   0.00000  Uiso   1.00
C49    C     0.83730   0.44022   0.94222   0.00000  Uiso   1.00
C50    C     0.91531   0.34355   0.83956   0.00000  Uiso   1.00
H51    H     0.66673   0.56734   0.16666   0.00000  Uiso   1.00
H52    H     0.72054   0.58476   0.33724   0.00000  Uiso   1.00
H53    H     0.44230   0.58476   0.22048   0.00000  Uiso   1.00
H54    H     0.83727   0.58476   0.94225   0.00000  Uiso   1.00
H55    H     0.78015   0.52170   0.52639   0.00000  Uiso   1.00
H56    H     0.19348   0.52170   0.28016   0.00000  Uiso   1.00
H57    H     0.02636   0.52170   0.69345   0.00000  Uiso   1.00
N58    N     0.77279   0.39620   0.50297   0.00000  Uiso   1.00
N59    N     0.22428   0.39620   0.27277   0.00000  Uiso   1.00
N60    N     0.00293   0.39620   0.72424   0.00000  Uiso   1.00
C61    C     0.33327   0.92193   0.83334   0.00000  Uiso   1.00
C62    C     0.30402   0.84339   0.74067   0.00000  Uiso   1.00
C63    C     0.27944   0.94022   0.66274   0.00000  Uiso   1.00
C64    C     0.25484   0.84355   0.58471   0.00000  Uiso   1.00
C65    C     0.45521   0.84338   0.80409   0.00000  Uiso   1.00
C66    C     0.55773   0.94022   0.77950   0.00000  Uiso   1.00
C67    C     0.66039   0.84355   0.75487   0.00000  Uiso   1.00
C68    C     0.24060   0.84339   0.95526   0.00000  Uiso   1.00
C69    C     0.16270   0.94022   0.05778   0.00000  Uiso   1.00
C70    C     0.08469   0.84355   0.16044   0.00000  Uiso   1.00
H71    H     0.33327   0.06734   0.83334   0.00000  Uiso   1.00
H72    H     0.27946   0.08476   0.66276   0.00000  Uiso   1.00
H73    H     0.55770   0.08476   0.77952   0.00000  Uiso   1.00
H74    H     0.16273   0.08476   0.05775   0.00000  Uiso   1.00
H75    H     0.21985   0.02170   0.47361   0.00000  Uiso   1.00
H76    H     0.80652   0.02170   0.71984   0.00000  Uiso   1.00
H77    H     0.97364   0.02170   0.30655   0.00000  Uiso   1.00
N78    N     0.22721   0.89620   0.49703   0.00000  Uiso   1.00
N79    N     0.77572   0.89620   0.72723   0.00000  Uiso   1.00
N80    N     0.99707   0.89620   0.27576   0.00000  Uiso   1.00
C81    C     0.20948   0.75000   0.44077   0.00000  Uiso   1.00
C82    C     0.84972   0.75000   0.70949   0.00000  Uiso   1.00
C83    C     0.94082   0.75000   0.34976   0.00000  Uiso   1.00
O84    O     0.18448   0.75000   0.36136   0.00000  Uiso   1.00
O85    O     0.95416   0.75000   0.68444   0.00000  Uiso   1.00
O86    O     0.86144   0.75000   0.45418   0.00000  Uiso   1.00
C87    C     0.79052   0.25000   0.55923   0.00000  Uiso   1.00
C88    C     0.15028   0.25000   0.29051   0.00000  Uiso   1.00
C89    C     0.05918   0.25000   0.65024   0.00000  Uiso   1.00
O90    O     0.81552   0.25000   0.63864   0.00000  Uiso   1.00
O91    O     0.04584   0.25000   0.31556   0.00000  Uiso   1.00
O92    O     0.13856   0.25000   0.54582   0.00000  Uiso   1.00
